C8471-P30
     RDKit          3D

 46 48  0  0  0  0  0  0  0  0999 V2000
   -9.7391  -19.4932    8.1276 O   0  0  0  0  0  0  0  0  0  0  0  0
  -10.7513  -19.7349    8.7075 C   0  0  0  0  0  0  0  0  0  0  0  0
  -11.6183  -18.5433    9.7656 C   0  0  0  0  0  0  0  0  0  0  0  0
  -11.8944  -17.1227   10.8099 C   0  0  0  0  0  0  0  0  0  0  0  0
  -11.0248  -16.0202   12.3129 C   0  0  0  0  0  0  0  0  0  0  0  0
  -11.8401  -14.7027   12.6935 C   0  0  0  0  0  0  0  0  0  0  0  0
  -10.6476  -13.7910   12.4048 C   0  0  0  0  0  0  0  0  0  0  0  0
   -9.8635  -14.2605   13.5904 C   0  0  0  0  0  0  0  0  0  0  0  0
  -10.0687  -15.7416   13.4850 N   0  0  0  0  0  0  0  0  0  0  0  0
  -11.6141  -20.9250    8.6673 N   0  0  0  0  0  0  0  0  0  0  0  0
  -11.5569  -22.1245    7.8338 C   0  0  0  0  0  0  0  0  0  0  0  0
  -12.5428  -23.2389    8.2906 C   0  0  0  0  0  0  0  0  0  0  0  0
  -13.7003  -23.4446    7.4680 C   0  0  0  0  0  0  0  0  0  0  0  0
  -14.4888  -24.4231    7.8750 N   0  0  0  0  0  0  0  0  0  0  0  0
  -13.8243  -24.9286    8.8996 N   0  0  0  0  0  0  0  0  0  0  0  0
  -12.7037  -24.2168    9.3099 C   0  0  0  0  0  0  0  0  0  0  0  0
  -12.1360  -24.8221   10.6017 C   0  0  0  0  0  0  0  0  0  0  0  0
  -13.2330  -24.8878   11.6968 C   0  0  0  0  0  0  0  0  0  0  0  0
  -12.5408  -24.5886   13.0108 C   0  0  0  0  0  0  0  0  0  0  0  0
  -11.1334  -24.8334   12.7470 N   0  0  0  0  0  0  0  0  0  0  0  0
  -10.9172  -24.3451   11.3795 C   0  0  0  0  0  0  0  0  0  0  0  0
  -12.6080  -18.9910    9.8885 H   0  0  0  0  0  0  0  0  0  0  0  0
  -11.9149  -17.9500    8.9255 H   0  0  0  0  0  0  0  0  0  0  0  0
  -12.9671  -17.1109   11.0623 H   0  0  0  0  0  0  0  0  0  0  0  0
  -12.4637  -16.6650    9.9570 H   0  0  0  0  0  0  0  0  0  0  0  0
  -10.9935  -16.9025   12.9690 H   0  0  0  0  0  0  0  0  0  0  0  0
  -12.1879  -14.7132   13.7434 H   0  0  0  0  0  0  0  0  0  0  0  0
  -12.7848  -14.5684   12.1538 H   0  0  0  0  0  0  0  0  0  0  0  0
  -10.3027  -13.9735   11.4228 H   0  0  0  0  0  0  0  0  0  0  0  0
  -10.6339  -12.7116   12.2797 H   0  0  0  0  0  0  0  0  0  0  0  0
  -10.2293  -14.0008   14.5937 H   0  0  0  0  0  0  0  0  0  0  0  0
   -8.8667  -13.8107   13.5959 H   0  0  0  0  0  0  0  0  0  0  0  0
  -10.4650  -16.0493   14.3781 H   0  0  0  0  0  0  0  0  0  0  0  0
  -12.3311  -20.8271    9.3397 H   0  0  0  0  0  0  0  0  0  0  0  0
  -12.0974  -21.7222    6.9557 H   0  0  0  0  0  0  0  0  0  0  0  0
  -10.6900  -22.3354    7.2014 H   0  0  0  0  0  0  0  0  0  0  0  0
  -13.9845  -22.9006    6.5741 H   0  0  0  0  0  0  0  0  0  0  0  0
  -14.2113  -25.7583    9.3366 H   0  0  0  0  0  0  0  0  0  0  0  0
  -11.9077  -25.8682   10.3332 H   0  0  0  0  0  0  0  0  0  0  0  0
  -13.6741  -25.8924   11.7167 H   0  0  0  0  0  0  0  0  0  0  0  0
  -14.0473  -24.1719   11.5356 H   0  0  0  0  0  0  0  0  0  0  0  0
  -12.9165  -25.2120   13.8270 H   0  0  0  0  0  0  0  0  0  0  0  0
  -12.7010  -23.5421   13.2769 H   0  0  0  0  0  0  0  0  0  0  0  0
  -10.5470  -24.3154   13.4031 H   0  0  0  0  0  0  0  0  0  0  0  0
  -10.7896  -23.2638   11.4027 H   0  0  0  0  0  0  0  0  0  0  0  0
   -9.9967  -24.8031   11.0044 H   0  0  0  0  0  0  0  0  0  0  0  0
  1  2  2  0
  2  3  1  0
  3  4  1  0
  4  5  1  0
  5  6  1  0
  6  7  1  0
  7  8  1  0
  8  9  1  0
  2 10  1  0
 10 11  1  0
 11 12  1  0
 12 13  1  0
 13 14  2  0
 14 15  1  0
 15 16  1  0
 16 17  1  0
 17 18  1  0
 18 19  1  0
 19 20  1  0
 20 21  1  0
  9  5  1  0
 16 12  2  0
 21 17  1  0
  3 22  1  0
  3 23  1  0
  4 24  1  0
  4 25  1  0
  5 26  1  0
  6 27  1  0
  6 28  1  0
  7 29  1  0
  7 30  1  0
  8 31  1  0
  8 32  1  0
  9 33  1  0
 10 34  1  0
 11 35  1  0
 11 36  1  0
 13 37  1  0
 15 38  1  0
 17 39  1  0
 18 40  1  0
 18 41  1  0
 19 42  1  0
 19 43  1  0
 20 44  1  0
 21 45  1  0
 21 46  1  0
M  END
>  <Energy>  (1) 
344.53744341383333

>  <compound_id>  (1) 
8471

>  <target_id>  (1) 
1

>  <reference_id>  (1) 
30

>  <inspiration_ids>  (1) 
[30, 95]

>  <energy_score>  (1) 
319.67044294223274

>  <distance_score>  (1) 
10.85387283476186

>  <path>  (1) 
/opt/xchem-fragalysis-2/maxwin/BulkDock/SCRATCH/511015/C8471-P30/C8471-P30.minimised.mol

>  <scratch_subdir>  (1) 
/opt/xchem-fragalysis-2/maxwin/BulkDock/SCRATCH/511015/C8471-P30

>  <fragmenstein_runtime>  (1) 
18.294744729995728

>  <fragmenstein_outcome>  (1) 
too moved

>  <fragmenstein_mode>  (1) 
expansion

>  <fragmenstein_error>  (1) 


$$$$
C8471-P95
     RDKit          3D

 46 48  0  0  0  0  0  0  0  0999 V2000
  -13.6479  -18.6024    9.7649 O   0  0  0  0  0  0  0  0  0  0  0  0
  -13.4948  -18.0855    8.6493 C   0  0  0  0  0  0  0  0  0  0  0  0
  -12.5590  -16.4442    8.1417 C   0  0  0  0  0  0  0  0  0  0  0  0
  -12.8767  -15.5645    6.5535 C   0  0  0  0  0  0  0  0  0  0  0  0
  -14.1232  -15.2270    5.6396 C   0  0  0  0  0  0  0  0  0  0  0  0
  -14.9650  -13.9487    5.8615 C   0  0  0  0  0  0  0  0  0  0  0  0
  -14.7410  -13.0073    4.6918 C   0  0  0  0  0  0  0  0  0  0  0  0
  -14.3955  -13.9574    3.5883 C   0  0  0  0  0  0  0  0  0  0  0  0
  -13.5765  -14.9695    4.2504 N   0  0  0  0  0  0  0  0  0  0  0  0
  -14.3430  -18.6945    6.5684 N   0  0  0  0  0  0  0  0  0  0  0  0
  -15.2871  -20.0770    6.0925 C   0  0  0  0  0  0  0  0  0  0  0  0
  -14.5908  -21.4307    6.2417 C   0  0  0  0  0  0  0  0  0  0  0  0
  -13.5462  -21.9068    5.4152 C   0  0  0  0  0  0  0  0  0  0  0  0
  -13.0512  -23.0747    5.8180 N   0  0  0  0  0  0  0  0  0  0  0  0
  -13.7300  -23.3450    6.9345 N   0  0  0  0  0  0  0  0  0  0  0  0
  -14.7176  -22.4313    7.2159 C   0  0  0  0  0  0  0  0  0  0  0  0
  -15.5998  -22.5623    8.4215 C   0  0  0  0  0  0  0  0  0  0  0  0
  -17.0901  -22.4613    8.0903 C   0  0  0  0  0  0  0  0  0  0  0  0
  -17.7853  -23.4349    9.0365 C   0  0  0  0  0  0  0  0  0  0  0  0
  -16.7585  -23.9269    9.9622 N   0  0  0  0  0  0  0  0  0  0  0  0
  -15.5191  -23.8886    9.1769 C   0  0  0  0  0  0  0  0  0  0  0  0
  -11.6610  -16.8583    7.7670 H   0  0  0  0  0  0  0  0  0  0  0  0
  -12.7639  -16.1558    9.1432 H   0  0  0  0  0  0  0  0  0  0  0  0
  -12.4073  -14.6141    6.5878 H   0  0  0  0  0  0  0  0  0  0  0  0
  -12.2200  -16.1527    5.8893 H   0  0  0  0  0  0  0  0  0  0  0  0
  -14.7972  -16.0816    5.5596 H   0  0  0  0  0  0  0  0  0  0  0  0
  -14.7728  -13.3976    6.7626 H   0  0  0  0  0  0  0  0  0  0  0  0
  -16.0251  -14.2341    5.8861 H   0  0  0  0  0  0  0  0  0  0  0  0
  -15.6267  -12.4049    4.4702 H   0  0  0  0  0  0  0  0  0  0  0  0
  -13.9099  -12.3292    4.8925 H   0  0  0  0  0  0  0  0  0  0  0  0
  -13.8556  -13.4718    2.7703 H   0  0  0  0  0  0  0  0  0  0  0  0
  -15.2939  -14.4267    3.1717 H   0  0  0  0  0  0  0  0  0  0  0  0
  -12.6414  -14.5971    4.3753 H   0  0  0  0  0  0  0  0  0  0  0  0
  -14.1093  -18.0214    5.8188 H   0  0  0  0  0  0  0  0  0  0  0  0
  -16.2855  -20.0285    6.5429 H   0  0  0  0  0  0  0  0  0  0  0  0
  -15.4227  -19.8772    5.0215 H   0  0  0  0  0  0  0  0  0  0  0  0
  -13.1158  -21.4302    4.5430 H   0  0  0  0  0  0  0  0  0  0  0  0
  -13.4671  -24.1794    7.4491 H   0  0  0  0  0  0  0  0  0  0  0  0
  -15.3441  -21.7636    9.1257 H   0  0  0  0  0  0  0  0  0  0  0  0
  -17.3077  -22.7318    7.0502 H   0  0  0  0  0  0  0  0  0  0  0  0
  -17.4496  -21.4385    8.2493 H   0  0  0  0  0  0  0  0  0  0  0  0
  -18.2038  -24.2773    8.4739 H   0  0  0  0  0  0  0  0  0  0  0  0
  -18.6086  -22.9589    9.5786 H   0  0  0  0  0  0  0  0  0  0  0  0
  -16.6753  -23.2583   10.7309 H   0  0  0  0  0  0  0  0  0  0  0  0
  -15.4937  -24.7541    8.5034 H   0  0  0  0  0  0  0  0  0  0  0  0
  -14.6381  -23.9411    9.8250 H   0  0  0  0  0  0  0  0  0  0  0  0
  1  2  2  0
  2  3  1  0
  3  4  1  0
  4  5  1  0
  5  6  1  0
  6  7  1  0
  7  8  1  0
  8  9  1  0
  2 10  1  0
 10 11  1  0
 11 12  1  0
 12 13  1  0
 13 14  2  0
 14 15  1  0
 15 16  1  0
 16 17  1  0
 17 18  1  0
 18 19  1  0
 19 20  1  0
 20 21  1  0
  9  5  1  0
 16 12  2  0
 21 17  1  0
  3 22  1  0
  3 23  1  0
  4 24  1  0
  4 25  1  0
  5 26  1  0
  6 27  1  0
  6 28  1  0
  7 29  1  0
  7 30  1  0
  8 31  1  0
  8 32  1  0
  9 33  1  0
 10 34  1  0
 11 35  1  0
 11 36  1  0
 13 37  1  0
 15 38  1  0
 17 39  1  0
 18 40  1  0
 18 41  1  0
 19 42  1  0
 19 43  1  0
 20 44  1  0
 21 45  1  0
 21 46  1  0
M  END
>  <Energy>  (2) 
599.44934785026908

>  <compound_id>  (2) 
8471

>  <target_id>  (2) 
1

>  <reference_id>  (2) 
95

>  <inspiration_ids>  (2) 
[30, 95]

>  <energy_score>  (2) 
574.5823473786709

>  <distance_score>  (2) 
11.269898412526489

>  <path>  (2) 
/opt/xchem-fragalysis-2/maxwin/BulkDock/SCRATCH/511015/C8471-P95/C8471-P95.minimised.mol

>  <scratch_subdir>  (2) 
/opt/xchem-fragalysis-2/maxwin/BulkDock/SCRATCH/511015/C8471-P95

>  <fragmenstein_runtime>  (2) 
18.646581411361694

>  <fragmenstein_outcome>  (2) 
too moved

>  <fragmenstein_mode>  (2) 
expansion

>  <fragmenstein_error>  (2) 


$$$$
C34590-P82
     RDKit          3D

 41 43  0  0  0  0  0  0  0  0999 V2000
  -10.2460  -25.4550   33.1549 C   0  0  0  0  0  0  0  0  0  0  0  0
  -10.4245  -24.3245   32.1679 C   0  0  0  0  0  0  0  0  0  0  0  0
  -11.8922  -24.2051   31.7668 C   0  0  0  0  0  0  0  0  0  0  0  0
  -12.1043  -24.5186   30.3816 N   0  0  0  0  0  0  0  0  0  0  0  0
  -11.6067  -25.6311   29.5626 C   0  0  0  0  0  0  0  0  0  0  0  0
  -10.8532  -26.4845   29.8276 O   0  0  0  0  0  0  0  0  0  0  0  0
  -12.4077  -25.4138   28.3452 N   0  0  0  0  0  0  0  0  0  0  0  0
  -12.5652  -26.1908   27.2285 C   0  0  0  0  0  0  0  0  0  0  0  0
  -13.3337  -25.7095   26.1910 C   0  0  0  0  0  0  0  0  0  0  0  0
  -13.7522  -26.6126   25.2209 C   0  0  0  0  0  0  0  0  0  0  0  0
  -13.3707  -27.9587   25.2763 C   0  0  0  0  0  0  0  0  0  0  0  0
  -13.7929  -28.9702   24.2412 C   0  0  0  0  0  0  0  0  0  0  0  0
  -15.2212  -29.0306   23.7525 C   0  0  0  0  0  0  0  0  0  0  0  0
  -14.6956  -30.1131   24.6456 C   0  0  0  0  0  0  0  0  0  0  0  0
  -12.5410  -28.3085   26.3358 C   0  0  0  0  0  0  0  0  0  0  0  0
  -12.1438  -27.4628   27.3013 N   0  0  0  0  0  0  0  0  0  0  0  0
  -12.6138  -22.9315   32.1455 C   0  0  0  0  0  0  0  0  0  0  0  0
  -13.8688  -22.8077   31.6688 N   0  0  0  0  0  0  0  0  0  0  0  0
  -14.6992  -21.9833   32.3087 C   0  0  0  0  0  0  0  0  0  0  0  0
  -14.2836  -21.1829   33.3346 C   0  0  0  0  0  0  0  0  0  0  0  0
  -12.9404  -21.2501   33.6337 C   0  0  0  0  0  0  0  0  0  0  0  0
  -12.0904  -22.1148   33.0647 N   0  0  0  0  0  0  0  0  0  0  0  0
  -10.5607  -26.3953   32.6975 H   0  0  0  0  0  0  0  0  0  0  0  0
  -10.8509  -25.3087   34.0543 H   0  0  0  0  0  0  0  0  0  0  0  0
   -9.1960  -25.5280   33.4435 H   0  0  0  0  0  0  0  0  0  0  0  0
  -10.0396  -23.4122   32.6180 H   0  0  0  0  0  0  0  0  0  0  0  0
   -9.7914  -24.5477   31.3043 H   0  0  0  0  0  0  0  0  0  0  0  0
  -12.4450  -24.9832   32.3020 H   0  0  0  0  0  0  0  0  0  0  0  0
  -12.8093  -24.0170   29.8679 H   0  0  0  0  0  0  0  0  0  0  0  0
  -12.8868  -24.5378   28.4172 H   0  0  0  0  0  0  0  0  0  0  0  0
  -13.6441  -24.6723   26.1393 H   0  0  0  0  0  0  0  0  0  0  0  0
  -14.3925  -26.2616   24.4143 H   0  0  0  0  0  0  0  0  0  0  0  0
  -13.0293  -29.2209   23.5053 H   0  0  0  0  0  0  0  0  0  0  0  0
  -15.9610  -28.3568   24.1696 H   0  0  0  0  0  0  0  0  0  0  0  0
  -15.3894  -29.2727   22.7085 H   0  0  0  0  0  0  0  0  0  0  0  0
  -15.0724  -30.1555   25.6616 H   0  0  0  0  0  0  0  0  0  0  0  0
  -14.5070  -31.0871   24.2072 H   0  0  0  0  0  0  0  0  0  0  0  0
  -12.1740  -29.3265   26.4438 H   0  0  0  0  0  0  0  0  0  0  0  0
  -15.7300  -22.0083   31.9720 H   0  0  0  0  0  0  0  0  0  0  0  0
  -14.9566  -20.5214   33.8600 H   0  0  0  0  0  0  0  0  0  0  0  0
  -12.5016  -20.6085   34.3933 H   0  0  0  0  0  0  0  0  0  0  0  0
  1  2  1  0
  2  3  1  0
  3  4  1  0
  4  5  1  0
  5  6  2  0
  5  7  1  0
  7  8  1  0
  8  9  2  0
  9 10  1  0
 10 11  2  0
 11 12  1  0
 12 13  1  0
 13 14  1  0
 11 15  1  0
 15 16  2  0
  3 17  1  0
 17 18  2  0
 18 19  1  0
 19 20  2  0
 20 21  1  0
 21 22  2  0
 16  8  1  0
 22 17  1  0
 14 12  1  0
  1 23  1  0
  1 24  1  0
  1 25  1  0
  2 26  1  0
  2 27  1  0
  3 28  1  0
  4 29  1  0
  7 30  1  0
  9 31  1  0
 10 32  1  0
 12 33  1  0
 13 34  1  0
 13 35  1  0
 14 36  1  0
 14 37  1  0
 15 38  1  0
 19 39  1  0
 20 40  1  0
 21 41  1  0
M  END
>  <Energy>  (3) 
-16.437578502554487

>  <compound_id>  (3) 
34590

>  <target_id>  (3) 
1

>  <reference_id>  (3) 
82

>  <inspiration_ids>  (3) 
[82, 54]

>  <energy_score>  (3) 
-8.602995916934034

>  <distance_score>  (3) 
5.754522459685894

>  <path>  (3) 
/opt/xchem-fragalysis-2/maxwin/BulkDock/SCRATCH/511015/C34590-P82/C34590-P82.minimised.mol

>  <scratch_subdir>  (3) 
/opt/xchem-fragalysis-2/maxwin/BulkDock/SCRATCH/511015/C34590-P82

>  <fragmenstein_runtime>  (3) 
9.012046337127686

>  <fragmenstein_outcome>  (3) 
too moved

>  <fragmenstein_mode>  (3) 
expansion

>  <fragmenstein_error>  (3) 


$$$$
C34590-P54
     RDKit          3D

 41 43  0  0  0  0  0  0  0  0999 V2000
  -10.7022  -23.1567   30.8216 C   0  0  0  0  0  0  0  0  0  0  0  0
  -10.2058  -24.4961   30.3036 C   0  0  0  0  0  0  0  0  0  0  0  0
  -11.1840  -25.3102   29.4296 C   0  0  0  0  0  0  0  0  0  0  0  0
  -12.2991  -25.8981   30.1446 N   0  0  0  0  0  0  0  0  0  0  0  0
  -12.3355  -26.7130   31.3694 C   0  0  0  0  0  0  0  0  0  0  0  0
  -11.4755  -27.0144   32.0997 O   0  0  0  0  0  0  0  0  0  0  0  0
  -13.7927  -26.9549   31.4584 N   0  0  0  0  0  0  0  0  0  0  0  0
  -14.5502  -27.5167   32.4612 C   0  0  0  0  0  0  0  0  0  0  0  0
  -15.9256  -27.4645   32.3371 C   0  0  0  0  0  0  0  0  0  0  0  0
  -16.6958  -27.8400   33.4337 C   0  0  0  0  0  0  0  0  0  0  0  0
  -16.0939  -28.2827   34.6171 C   0  0  0  0  0  0  0  0  0  0  0  0
  -16.9010  -28.6755   35.8274 C   0  0  0  0  0  0  0  0  0  0  0  0
  -17.9843  -29.7230   35.7103 C   0  0  0  0  0  0  0  0  0  0  0  0
  -16.7202  -30.0414   36.4490 C   0  0  0  0  0  0  0  0  0  0  0  0
  -14.7022  -28.3121   34.6106 C   0  0  0  0  0  0  0  0  0  0  0  0
  -13.9266  -27.9390   33.5727 N   0  0  0  0  0  0  0  0  0  0  0  0
  -11.7347  -24.5430   28.2362 C   0  0  0  0  0  0  0  0  0  0  0  0
  -10.8941  -23.8237   27.4767 N   0  0  0  0  0  0  0  0  0  0  0  0
  -11.4497  -23.1977   26.4268 C   0  0  0  0  0  0  0  0  0  0  0  0
  -12.7795  -23.2813   26.0922 C   0  0  0  0  0  0  0  0  0  0  0  0
  -13.5473  -24.0770   26.9000 C   0  0  0  0  0  0  0  0  0  0  0  0
  -13.0626  -24.7022   27.9822 N   0  0  0  0  0  0  0  0  0  0  0  0
  -11.5653  -23.2832   31.4696 H   0  0  0  0  0  0  0  0  0  0  0  0
  -10.9753  -22.4790   30.0078 H   0  0  0  0  0  0  0  0  0  0  0  0
   -9.9166  -22.6689   31.4082 H   0  0  0  0  0  0  0  0  0  0  0  0
   -9.9012  -25.0900   31.1700 H   0  0  0  0  0  0  0  0  0  0  0  0
   -9.2954  -24.3030   29.7213 H   0  0  0  0  0  0  0  0  0  0  0  0
  -10.6556  -26.1667   29.0071 H   0  0  0  0  0  0  0  0  0  0  0  0
  -13.2338  -25.7682   29.8043 H   0  0  0  0  0  0  0  0  0  0  0  0
  -14.2326  -26.6343   30.6209 H   0  0  0  0  0  0  0  0  0  0  0  0
  -16.4079  -27.0960   31.4395 H   0  0  0  0  0  0  0  0  0  0  0  0
  -17.7800  -27.7801   33.3707 H   0  0  0  0  0  0  0  0  0  0  0  0
  -17.1052  -27.8624   36.5229 H   0  0  0  0  0  0  0  0  0  0  0  0
  -18.8899  -29.5803   36.2893 H   0  0  0  0  0  0  0  0  0  0  0  0
  -18.1448  -30.2144   34.7571 H   0  0  0  0  0  0  0  0  0  0  0  0
  -16.0379  -30.7479   35.9890 H   0  0  0  0  0  0  0  0  0  0  0  0
  -16.7697  -30.1167   37.5296 H   0  0  0  0  0  0  0  0  0  0  0  0
  -14.1533  -28.6472   35.4856 H   0  0  0  0  0  0  0  0  0  0  0  0
  -10.7678  -22.6245   25.8152 H   0  0  0  0  0  0  0  0  0  0  0  0
  -13.1878  -22.7460   25.2454 H   0  0  0  0  0  0  0  0  0  0  0  0
  -14.6088  -24.2120   26.7144 H   0  0  0  0  0  0  0  0  0  0  0  0
  1  2  1  0
  2  3  1  0
  3  4  1  0
  4  5  1  0
  5  6  2  0
  5  7  1  0
  7  8  1  0
  8  9  2  0
  9 10  1  0
 10 11  2  0
 11 12  1  0
 12 13  1  0
 13 14  1  0
 11 15  1  0
 15 16  2  0
  3 17  1  0
 17 18  2  0
 18 19  1  0
 19 20  2  0
 20 21  1  0
 21 22  2  0
 16  8  1  0
 22 17  1  0
 14 12  1  0
  1 23  1  0
  1 24  1  0
  1 25  1  0
  2 26  1  0
  2 27  1  0
  3 28  1  0
  4 29  1  0
  7 30  1  0
  9 31  1  0
 10 32  1  0
 12 33  1  0
 13 34  1  0
 13 35  1  0
 14 36  1  0
 14 37  1  0
 15 38  1  0
 19 39  1  0
 20 40  1  0
 21 41  1  0
M  END
>  <Energy>  (4) 
-26.374792346652871

>  <compound_id>  (4) 
34590

>  <target_id>  (4) 
1

>  <reference_id>  (4) 
54

>  <inspiration_ids>  (4) 
[82, 54]

>  <energy_score>  (4) 
-18.540209761030916

>  <distance_score>  (4) 
4.367090262371652

>  <path>  (4) 
/opt/xchem-fragalysis-2/maxwin/BulkDock/SCRATCH/511015/C34590-P54/C34590-P54.minimised.mol

>  <scratch_subdir>  (4) 
/opt/xchem-fragalysis-2/maxwin/BulkDock/SCRATCH/511015/C34590-P54

>  <fragmenstein_runtime>  (4) 
8.256617069244385

>  <fragmenstein_outcome>  (4) 
too moved

>  <fragmenstein_mode>  (4) 
expansion

>  <fragmenstein_error>  (4) 


$$$$
C34592-P82
     RDKit          3D

 42 43  0  0  0  0  0  0  0  0999 V2000
  -13.0759  -28.9009   26.9703 C   0  0  0  0  0  0  0  0  0  0  0  0
  -11.9255  -28.3706   26.1331 C   0  0  0  0  0  0  0  0  0  0  0  0
  -11.4385  -26.9400   26.3915 C   0  0  0  0  0  0  0  0  0  0  0  0
  -10.9338  -26.6261   27.7065 N   0  0  0  0  0  0  0  0  0  0  0  0
  -11.4091  -27.0286   29.0399 C   0  0  0  0  0  0  0  0  0  0  0  0
  -12.2626  -27.7635   29.3417 O   0  0  0  0  0  0  0  0  0  0  0  0
  -10.5638  -26.1602   29.8772 N   0  0  0  0  0  0  0  0  0  0  0  0
  -10.6047  -25.9010   31.2274 C   0  0  0  0  0  0  0  0  0  0  0  0
   -9.5922  -25.2517   31.8485 C   0  0  0  0  0  0  0  0  0  0  0  0
   -9.9436  -24.0786   32.4867 C   0  0  0  0  0  0  0  0  0  0  0  0
  -11.2574  -23.6245   32.4548 C   0  0  0  0  0  0  0  0  0  0  0  0
  -11.5170  -22.2497   32.2199 N   0  0  0  0  0  0  0  0  0  0  0  0
  -12.0398  -22.1492   30.8349 C   0  0  0  0  0  0  0  0  0  0  0  0
  -12.4023  -21.7166   33.2505 C   0  0  0  0  0  0  0  0  0  0  0  0
  -12.2040  -24.5732   32.2219 C   0  0  0  0  0  0  0  0  0  0  0  0
  -11.8613  -25.7000   31.6126 N   0  0  0  0  0  0  0  0  0  0  0  0
  -12.3990  -25.8473   25.9637 C   0  0  0  0  0  0  0  0  0  0  0  0
  -13.6446  -26.1715   25.5625 N   0  0  0  0  0  0  0  0  0  0  0  0
  -14.3949  -25.1777   25.0610 C   0  0  0  0  0  0  0  0  0  0  0  0
  -13.9427  -23.8926   24.9366 C   0  0  0  0  0  0  0  0  0  0  0  0
  -12.6761  -23.6539   25.4116 C   0  0  0  0  0  0  0  0  0  0  0  0
  -11.8781  -24.6038   25.9191 N   0  0  0  0  0  0  0  0  0  0  0  0
  -13.6408  -29.6347   26.3831 H   0  0  0  0  0  0  0  0  0  0  0  0
  -12.7139  -29.4475   27.8437 H   0  0  0  0  0  0  0  0  0  0  0  0
  -13.7806  -28.1263   27.2759 H   0  0  0  0  0  0  0  0  0  0  0  0
  -11.0935  -29.0784   26.2100 H   0  0  0  0  0  0  0  0  0  0  0  0
  -12.2353  -28.4290   25.0795 H   0  0  0  0  0  0  0  0  0  0  0  0
  -10.5782  -26.8343   25.7295 H   0  0  0  0  0  0  0  0  0  0  0  0
  -10.2389  -25.9143   27.8051 H   0  0  0  0  0  0  0  0  0  0  0  0
   -9.8767  -25.7230   29.3077 H   0  0  0  0  0  0  0  0  0  0  0  0
   -8.5638  -25.5314   31.7094 H   0  0  0  0  0  0  0  0  0  0  0  0
   -9.1529  -23.4258   32.8121 H   0  0  0  0  0  0  0  0  0  0  0  0
  -11.7016  -21.2106   30.4025 H   0  0  0  0  0  0  0  0  0  0  0  0
  -13.1332  -22.1949   30.8060 H   0  0  0  0  0  0  0  0  0  0  0  0
  -11.6462  -22.9193   30.1573 H   0  0  0  0  0  0  0  0  0  0  0  0
  -13.4535  -21.9807   33.0915 H   0  0  0  0  0  0  0  0  0  0  0  0
  -12.0959  -22.0681   34.2338 H   0  0  0  0  0  0  0  0  0  0  0  0
  -12.3068  -20.6308   33.2834 H   0  0  0  0  0  0  0  0  0  0  0  0
  -13.2659  -24.3688   32.2736 H   0  0  0  0  0  0  0  0  0  0  0  0
  -15.3934  -25.4554   24.7371 H   0  0  0  0  0  0  0  0  0  0  0  0
  -14.5424  -23.1081   24.4944 H   0  0  0  0  0  0  0  0  0  0  0  0
  -12.2514  -22.6599   25.3595 H   0  0  0  0  0  0  0  0  0  0  0  0
  1  2  1  0
  2  3  1  0
  3  4  1  0
  4  5  1  0
  5  6  2  0
  5  7  1  0
  7  8  1  0
  8  9  2  0
  9 10  1  0
 10 11  2  0
 11 12  1  0
 12 13  1  0
 12 14  1  0
 11 15  1  0
 15 16  2  0
  3 17  1  0
 17 18  2  0
 18 19  1  0
 19 20  2  0
 20 21  1  0
 21 22  2  0
 16  8  1  0
 22 17  1  0
  1 23  1  0
  1 24  1  0
  1 25  1  0
  2 26  1  0
  2 27  1  0
  3 28  1  0
  4 29  1  0
  7 30  1  0
  9 31  1  0
 10 32  1  0
 13 33  1  0
 13 34  1  0
 13 35  1  0
 14 36  1  0
 14 37  1  0
 14 38  1  0
 15 39  1  0
 19 40  1  0
 20 41  1  0
 21 42  1  0
M  END
>  <Energy>  (5) 
38.122124280804869

>  <compound_id>  (5) 
34592

>  <target_id>  (5) 
1

>  <reference_id>  (5) 
82

>  <inspiration_ids>  (5) 
[82, 54]

>  <energy_score>  (5) 
36.247675772185545

>  <distance_score>  (5) 
4.916448300260477

>  <path>  (5) 
/opt/xchem-fragalysis-2/maxwin/BulkDock/SCRATCH/511015/C34592-P82/C34592-P82.minimised.mol

>  <scratch_subdir>  (5) 
/opt/xchem-fragalysis-2/maxwin/BulkDock/SCRATCH/511015/C34592-P82

>  <fragmenstein_runtime>  (5) 
13.591178894042969

>  <fragmenstein_outcome>  (5) 
too moved

>  <fragmenstein_mode>  (5) 
expansion

>  <fragmenstein_error>  (5) 


$$$$
C34592-P54
     RDKit          3D

 42 43  0  0  0  0  0  0  0  0999 V2000
   -9.4308  -22.7403   33.6632 C   0  0  0  0  0  0  0  0  0  0  0  0
   -8.6267  -23.3226   32.5160 C   0  0  0  0  0  0  0  0  0  0  0  0
   -9.3352  -23.5475   31.1654 C   0  0  0  0  0  0  0  0  0  0  0  0
  -10.1880  -24.7011   31.1767 N   0  0  0  0  0  0  0  0  0  0  0  0
  -10.8317  -25.4307   30.0713 C   0  0  0  0  0  0  0  0  0  0  0  0
  -10.7344  -25.2871   28.9151 O   0  0  0  0  0  0  0  0  0  0  0  0
  -11.7098  -26.3295   30.8507 N   0  0  0  0  0  0  0  0  0  0  0  0
  -12.7128  -27.1722   30.4450 C   0  0  0  0  0  0  0  0  0  0  0  0
  -13.6955  -27.4629   31.3735 C   0  0  0  0  0  0  0  0  0  0  0  0
  -14.9894  -27.5873   30.8845 C   0  0  0  0  0  0  0  0  0  0  0  0
  -15.2321  -27.4960   29.5099 C   0  0  0  0  0  0  0  0  0  0  0  0
  -16.5543  -27.3153   29.0647 N   0  0  0  0  0  0  0  0  0  0  0  0
  -16.7872  -25.8759   28.8421 C   0  0  0  0  0  0  0  0  0  0  0  0
  -16.9190  -28.1480   27.9151 C   0  0  0  0  0  0  0  0  0  0  0  0
  -14.1233  -27.4371   28.6744 C   0  0  0  0  0  0  0  0  0  0  0  0
  -12.8713  -27.2870   29.1213 N   0  0  0  0  0  0  0  0  0  0  0  0
  -10.1406  -22.3931   30.5979 C   0  0  0  0  0  0  0  0  0  0  0  0
  -10.1459  -22.2430   29.2546 N   0  0  0  0  0  0  0  0  0  0  0  0
  -10.8187  -21.1940   28.7678 C   0  0  0  0  0  0  0  0  0  0  0  0
  -11.4443  -20.2831   29.5733 C   0  0  0  0  0  0  0  0  0  0  0  0
  -11.4767  -20.5734   30.9127 C   0  0  0  0  0  0  0  0  0  0  0  0
  -10.8527  -21.6318   31.4424 N   0  0  0  0  0  0  0  0  0  0  0  0
   -8.9287  -22.9340   34.6147 H   0  0  0  0  0  0  0  0  0  0  0  0
   -9.5222  -21.6539   33.5731 H   0  0  0  0  0  0  0  0  0  0  0  0
  -10.4264  -23.1690   33.7125 H   0  0  0  0  0  0  0  0  0  0  0  0
   -7.7755  -22.6534   32.3635 H   0  0  0  0  0  0  0  0  0  0  0  0
   -8.2191  -24.2829   32.8575 H   0  0  0  0  0  0  0  0  0  0  0  0
   -8.5685  -23.7714   30.4151 H   0  0  0  0  0  0  0  0  0  0  0  0
  -10.5530  -25.0246   32.0384 H   0  0  0  0  0  0  0  0  0  0  0  0
  -11.4797  -26.2583   31.8149 H   0  0  0  0  0  0  0  0  0  0  0  0
  -13.5275  -27.4026   32.4401 H   0  0  0  0  0  0  0  0  0  0  0  0
  -15.8288  -27.6656   31.5706 H   0  0  0  0  0  0  0  0  0  0  0  0
  -17.8377  -25.7113   28.5776 H   0  0  0  0  0  0  0  0  0  0  0  0
  -16.5936  -25.3045   29.7571 H   0  0  0  0  0  0  0  0  0  0  0  0
  -16.1675  -25.4787   28.0293 H   0  0  0  0  0  0  0  0  0  0  0  0
  -16.4229  -27.8264   26.9925 H   0  0  0  0  0  0  0  0  0  0  0  0
  -16.6790  -29.2009   28.1024 H   0  0  0  0  0  0  0  0  0  0  0  0
  -18.0005  -28.0875   27.7506 H   0  0  0  0  0  0  0  0  0  0  0  0
  -14.2180  -27.4019   27.5947 H   0  0  0  0  0  0  0  0  0  0  0  0
  -10.8051  -21.0781   27.6906 H   0  0  0  0  0  0  0  0  0  0  0  0
  -11.8543  -19.3709   29.1773 H   0  0  0  0  0  0  0  0  0  0  0  0
  -11.9805  -19.9277   31.6254 H   0  0  0  0  0  0  0  0  0  0  0  0
  1  2  1  0
  2  3  1  0
  3  4  1  0
  4  5  1  0
  5  6  2  0
  5  7  1  0
  7  8  1  0
  8  9  2  0
  9 10  1  0
 10 11  2  0
 11 12  1  0
 12 13  1  0
 12 14  1  0
 11 15  1  0
 15 16  2  0
  3 17  1  0
 17 18  2  0
 18 19  1  0
 19 20  2  0
 20 21  1  0
 21 22  2  0
 16  8  1  0
 22 17  1  0
  1 23  1  0
  1 24  1  0
  1 25  1  0
  2 26  1  0
  2 27  1  0
  3 28  1  0
  4 29  1  0
  7 30  1  0
  9 31  1  0
 10 32  1  0
 13 33  1  0
 13 34  1  0
 13 35  1  0
 14 36  1  0
 14 37  1  0
 14 38  1  0
 15 39  1  0
 19 40  1  0
 20 41  1  0
 21 42  1  0
M  END
>  <Energy>  (6) 
4.6397338910566912

>  <compound_id>  (6) 
34592

>  <target_id>  (6) 
1

>  <reference_id>  (6) 
54

>  <inspiration_ids>  (6) 
[82, 54]

>  <energy_score>  (6) 
2.7652853824381722

>  <distance_score>  (6) 
4.280166240680531

>  <path>  (6) 
/opt/xchem-fragalysis-2/maxwin/BulkDock/SCRATCH/511015/C34592-P54/C34592-P54.minimised.mol

>  <scratch_subdir>  (6) 
/opt/xchem-fragalysis-2/maxwin/BulkDock/SCRATCH/511015/C34592-P54

>  <fragmenstein_runtime>  (6) 
13.067675590515137

>  <fragmenstein_outcome>  (6) 
too moved

>  <fragmenstein_mode>  (6) 
expansion

>  <fragmenstein_error>  (6) 


$$$$
C34594-P82
     RDKit          3D

 41 42  0  0  0  0  0  0  0  0999 V2000
   -9.3300  -25.3253   31.5702 C   0  0  0  0  0  0  0  0  0  0  0  0
  -10.4393  -26.2823   31.2403 C   0  0  0  0  0  0  0  0  0  0  0  0
  -11.4430  -25.7566   30.2177 C   0  0  0  0  0  0  0  0  0  0  0  0
  -11.4242  -26.3552   28.9046 N   0  0  0  0  0  0  0  0  0  0  0  0
  -12.0410  -27.5762   28.4039 C   0  0  0  0  0  0  0  0  0  0  0  0
  -12.6364  -28.4092   28.9705 O   0  0  0  0  0  0  0  0  0  0  0  0
  -11.7810  -27.4055   26.9600 N   0  0  0  0  0  0  0  0  0  0  0  0
  -12.0813  -28.2115   25.8963 C   0  0  0  0  0  0  0  0  0  0  0  0
  -11.1003  -28.2073   24.9635 N   0  0  0  0  0  0  0  0  0  0  0  0
  -11.1722  -29.1519   24.0101 C   0  0  0  0  0  0  0  0  0  0  0  0
  -12.2267  -30.0300   23.8873 C   0  0  0  0  0  0  0  0  0  0  0  0
  -13.2786  -29.9268   24.7868 C   0  0  0  0  0  0  0  0  0  0  0  0
  -13.2368  -28.9873   25.8200 C   0  0  0  0  0  0  0  0  0  0  0  0
  -14.4733  -28.8258   26.6686 C   0  0  0  0  0  0  0  0  0  0  0  0
  -14.9808  -27.4795   26.6704 O   0  0  0  0  0  0  0  0  0  0  0  0
  -15.6265  -27.1598   25.4371 C   0  0  0  0  0  0  0  0  0  0  0  0
  -11.4757  -24.2742   29.9864 C   0  0  0  0  0  0  0  0  0  0  0  0
  -11.8284  -23.4852   31.0081 N   0  0  0  0  0  0  0  0  0  0  0  0
  -12.0659  -22.2230   30.6832 C   0  0  0  0  0  0  0  0  0  0  0  0
  -11.9459  -21.7521   29.3976 C   0  0  0  0  0  0  0  0  0  0  0  0
  -11.5429  -22.6190   28.4241 C   0  0  0  0  0  0  0  0  0  0  0  0
  -11.2532  -23.8800   28.6984 N   0  0  0  0  0  0  0  0  0  0  0  0
   -9.6852  -24.4602   32.1365 H   0  0  0  0  0  0  0  0  0  0  0  0
   -8.9092  -25.0039   30.6224 H   0  0  0  0  0  0  0  0  0  0  0  0
   -8.5511  -25.7931   32.1724 H   0  0  0  0  0  0  0  0  0  0  0  0
  -10.9466  -26.4619   32.1931 H   0  0  0  0  0  0  0  0  0  0  0  0
  -10.0336  -27.2427   30.9096 H   0  0  0  0  0  0  0  0  0  0  0  0
  -12.4250  -25.9758   30.6011 H   0  0  0  0  0  0  0  0  0  0  0  0
  -11.0656  -25.8254   28.1326 H   0  0  0  0  0  0  0  0  0  0  0  0
  -11.1664  -26.6308   26.8247 H   0  0  0  0  0  0  0  0  0  0  0  0
  -10.3371  -29.1897   23.3158 H   0  0  0  0  0  0  0  0  0  0  0  0
  -12.2422  -30.7669   23.0909 H   0  0  0  0  0  0  0  0  0  0  0  0
  -14.1368  -30.5851   24.6664 H   0  0  0  0  0  0  0  0  0  0  0  0
  -15.2753  -29.4920   26.3227 H   0  0  0  0  0  0  0  0  0  0  0  0
  -14.2925  -29.1419   27.6941 H   0  0  0  0  0  0  0  0  0  0  0  0
  -16.4619  -27.8425   25.2538 H   0  0  0  0  0  0  0  0  0  0  0  0
  -14.9194  -27.1941   24.6032 H   0  0  0  0  0  0  0  0  0  0  0  0
  -16.0221  -26.1443   25.4993 H   0  0  0  0  0  0  0  0  0  0  0  0
  -12.3663  -21.5992   31.5151 H   0  0  0  0  0  0  0  0  0  0  0  0
  -12.1843  -20.7459   29.1310 H   0  0  0  0  0  0  0  0  0  0  0  0
  -11.4602  -22.3121   27.3888 H   0  0  0  0  0  0  0  0  0  0  0  0
  1  2  1  0
  2  3  1  0
  3  4  1  0
  4  5  1  0
  5  6  2  0
  5  7  1  0
  7  8  1  0
  8  9  2  0
  9 10  1  0
 10 11  2  0
 11 12  1  0
 12 13  2  0
 13 14  1  0
 14 15  1  0
 15 16  1  0
  3 17  1  0
 17 18  2  0
 18 19  1  0
 19 20  2  0
 20 21  1  0
 21 22  2  0
 13  8  1  0
 22 17  1  0
  1 23  1  0
  1 24  1  0
  1 25  1  0
  2 26  1  0
  2 27  1  0
  3 28  1  0
  4 29  1  0
  7 30  1  0
 10 31  1  0
 11 32  1  0
 12 33  1  0
 14 34  1  0
 14 35  1  0
 16 36  1  0
 16 37  1  0
 16 38  1  0
 19 39  1  0
 20 40  1  0
 21 41  1  0
M  END
>  <Energy>  (7) 
-20.023203954517559

>  <compound_id>  (7) 
34594

>  <target_id>  (7) 
1

>  <reference_id>  (7) 
82

>  <inspiration_ids>  (7) 
[82, 54]

>  <energy_score>  (7) 
-15.640717459594029

>  <distance_score>  (7) 
6.2611050338506695

>  <path>  (7) 
/opt/xchem-fragalysis-2/maxwin/BulkDock/SCRATCH/511015/C34594-P82/C34594-P82.minimised.mol

>  <scratch_subdir>  (7) 
/opt/xchem-fragalysis-2/maxwin/BulkDock/SCRATCH/511015/C34594-P82

>  <fragmenstein_runtime>  (7) 
6.615302562713623

>  <fragmenstein_outcome>  (7) 
too moved

>  <fragmenstein_mode>  (7) 
expansion

>  <fragmenstein_error>  (7) 


$$$$
C34594-P54
     RDKit          3D

 41 42  0  0  0  0  0  0  0  0999 V2000
   -9.2214  -22.6872   33.1831 C   0  0  0  0  0  0  0  0  0  0  0  0
   -8.9880  -22.8896   31.6923 C   0  0  0  0  0  0  0  0  0  0  0  0
  -10.2208  -22.6516   30.8228 C   0  0  0  0  0  0  0  0  0  0  0  0
  -11.0577  -23.8052   30.8113 N   0  0  0  0  0  0  0  0  0  0  0  0
  -10.8864  -25.1453   31.4833 C   0  0  0  0  0  0  0  0  0  0  0  0
  -10.0979  -25.5042   32.2020 O   0  0  0  0  0  0  0  0  0  0  0  0
  -12.1437  -25.8335   30.9801 N   0  0  0  0  0  0  0  0  0  0  0  0
  -12.6926  -27.0161   31.3288 C   0  0  0  0  0  0  0  0  0  0  0  0
  -12.0525  -27.6516   32.3259 N   0  0  0  0  0  0  0  0  0  0  0  0
  -12.7421  -28.5697   32.9869 C   0  0  0  0  0  0  0  0  0  0  0  0
  -14.0587  -28.8444   32.6982 C   0  0  0  0  0  0  0  0  0  0  0  0
  -14.6782  -28.1911   31.6392 C   0  0  0  0  0  0  0  0  0  0  0  0
  -13.9806  -27.2599   30.8922 C   0  0  0  0  0  0  0  0  0  0  0  0
  -14.6637  -26.6415   29.6994 C   0  0  0  0  0  0  0  0  0  0  0  0
  -13.9749  -25.5002   29.1719 O   0  0  0  0  0  0  0  0  0  0  0  0
  -14.5021  -25.1400   27.8973 C   0  0  0  0  0  0  0  0  0  0  0  0
   -9.9634  -22.5879   29.3141 C   0  0  0  0  0  0  0  0  0  0  0  0
  -10.7623  -21.7284   28.6521 N   0  0  0  0  0  0  0  0  0  0  0  0
  -11.2065  -22.1425   27.4545 C   0  0  0  0  0  0  0  0  0  0  0  0
  -10.9537  -23.3780   26.9161 C   0  0  0  0  0  0  0  0  0  0  0  0
  -10.0907  -24.1603   27.6285 C   0  0  0  0  0  0  0  0  0  0  0  0
   -9.5272  -23.7602   28.7762 N   0  0  0  0  0  0  0  0  0  0  0  0
   -9.9977  -23.3432   33.5774 H   0  0  0  0  0  0  0  0  0  0  0  0
   -8.2986  -22.8838   33.7378 H   0  0  0  0  0  0  0  0  0  0  0  0
   -9.5200  -21.6535   33.3862 H   0  0  0  0  0  0  0  0  0  0  0  0
   -8.5871  -23.8881   31.5234 H   0  0  0  0  0  0  0  0  0  0  0  0
   -8.1915  -22.2244   31.3954 H   0  0  0  0  0  0  0  0  0  0  0  0
  -10.8019  -21.7837   31.1507 H   0  0  0  0  0  0  0  0  0  0  0  0
  -11.8229  -23.8484   30.1663 H   0  0  0  0  0  0  0  0  0  0  0  0
  -12.5849  -25.2612   30.2794 H   0  0  0  0  0  0  0  0  0  0  0  0
  -12.2131  -29.0836   33.7828 H   0  0  0  0  0  0  0  0  0  0  0  0
  -14.5942  -29.5945   33.2718 H   0  0  0  0  0  0  0  0  0  0  0  0
  -15.7074  -28.4455   31.3950 H   0  0  0  0  0  0  0  0  0  0  0  0
  -14.7384  -27.4114   28.9212 H   0  0  0  0  0  0  0  0  0  0  0  0
  -15.6732  -26.3207   29.9839 H   0  0  0  0  0  0  0  0  0  0  0  0
  -14.0155  -24.2176   27.5732 H   0  0  0  0  0  0  0  0  0  0  0  0
  -14.2834  -25.9225   27.1643 H   0  0  0  0  0  0  0  0  0  0  0  0
  -15.5809  -24.9719   27.9560 H   0  0  0  0  0  0  0  0  0  0  0  0
  -11.8026  -21.4261   26.9111 H   0  0  0  0  0  0  0  0  0  0  0  0
  -11.3653  -23.6792   25.9680 H   0  0  0  0  0  0  0  0  0  0  0  0
   -9.7967  -25.1479   27.2871 H   0  0  0  0  0  0  0  0  0  0  0  0
  1  2  1  0
  2  3  1  0
  3  4  1  0
  4  5  1  0
  5  6  2  0
  5  7  1  0
  7  8  1  0
  8  9  2  0
  9 10  1  0
 10 11  2  0
 11 12  1  0
 12 13  2  0
 13 14  1  0
 14 15  1  0
 15 16  1  0
  3 17  1  0
 17 18  2  0
 18 19  1  0
 19 20  2  0
 20 21  1  0
 21 22  2  0
 13  8  1  0
 22 17  1  0
  1 23  1  0
  1 24  1  0
  1 25  1  0
  2 26  1  0
  2 27  1  0
  3 28  1  0
  4 29  1  0
  7 30  1  0
 10 31  1  0
 11 32  1  0
 12 33  1  0
 14 34  1  0
 14 35  1  0
 16 36  1  0
 16 37  1  0
 16 38  1  0
 19 39  1  0
 20 40  1  0
 21 41  1  0
M  END
>  <Energy>  (8) 
6.3196128721679283

>  <compound_id>  (8) 
34594

>  <target_id>  (8) 
1

>  <reference_id>  (8) 
54

>  <inspiration_ids>  (8) 
[82, 54]

>  <energy_score>  (8) 
25.82739345835842

>  <distance_score>  (8) 
3.327533557419766

>  <path>  (8) 
/opt/xchem-fragalysis-2/maxwin/BulkDock/SCRATCH/511015/C34594-P54/C34594-P54.minimised.mol

>  <scratch_subdir>  (8) 
/opt/xchem-fragalysis-2/maxwin/BulkDock/SCRATCH/511015/C34594-P54

>  <fragmenstein_runtime>  (8) 
4.64748215675354

>  <fragmenstein_outcome>  (8) 
too moved

>  <fragmenstein_mode>  (8) 
expansion

>  <fragmenstein_error>  (8) 


$$$$
C34595-P82
     RDKit          3D

 41 43  0  0  0  0  0  0  0  0999 V2000
  -10.2785  -26.6127   30.8305 C   0  0  0  0  0  0  0  0  0  0  0  0
   -9.8526  -25.2418   30.3263 C   0  0  0  0  0  0  0  0  0  0  0  0
  -10.9951  -24.2816   29.9864 C   0  0  0  0  0  0  0  0  0  0  0  0
  -11.9104  -25.0076   29.1846 N   0  0  0  0  0  0  0  0  0  0  0  0
  -12.0546  -25.0881   27.7336 C   0  0  0  0  0  0  0  0  0  0  0  0
  -11.4962  -24.5099   26.8816 O   0  0  0  0  0  0  0  0  0  0  0  0
  -13.1112  -26.0750   27.6627 N   0  0  0  0  0  0  0  0  0  0  0  0
  -13.8196  -26.5475   26.6044 C   0  0  0  0  0  0  0  0  0  0  0  0
  -13.8185  -25.9477   25.3770 C   0  0  0  0  0  0  0  0  0  0  0  0
  -14.7321  -26.4209   24.4542 C   0  0  0  0  0  0  0  0  0  0  0  0
  -15.5798  -27.4717   24.7982 C   0  0  0  0  0  0  0  0  0  0  0  0
  -15.5311  -28.0189   26.0743 C   0  0  0  0  0  0  0  0  0  0  0  0
  -16.4556  -29.1408   26.4755 C   0  0  0  0  0  0  0  0  0  0  0  0
  -15.9482  -30.2655   27.3493 C   0  0  0  0  0  0  0  0  0  0  0  0
  -16.2497  -30.5250   25.9039 C   0  0  0  0  0  0  0  0  0  0  0  0
  -14.6758  -27.5200   26.9879 N   0  0  0  0  0  0  0  0  0  0  0  0
  -11.6881  -23.6563   31.1784 C   0  0  0  0  0  0  0  0  0  0  0  0
  -12.6482  -22.7520   30.9030 N   0  0  0  0  0  0  0  0  0  0  0  0
  -13.5282  -22.5081   31.8810 C   0  0  0  0  0  0  0  0  0  0  0  0
  -13.4047  -23.0144   33.1434 C   0  0  0  0  0  0  0  0  0  0  0  0
  -12.2962  -23.7918   33.3635 C   0  0  0  0  0  0  0  0  0  0  0  0
  -11.4235  -24.1309   32.4065 N   0  0  0  0  0  0  0  0  0  0  0  0
  -10.7320  -26.5377   31.8200 H   0  0  0  0  0  0  0  0  0  0  0  0
  -10.9719  -27.1112   30.1496 H   0  0  0  0  0  0  0  0  0  0  0  0
   -9.4094  -27.2634   30.9224 H   0  0  0  0  0  0  0  0  0  0  0  0
   -9.2036  -24.8173   31.0900 H   0  0  0  0  0  0  0  0  0  0  0  0
   -9.2653  -25.3889   29.4127 H   0  0  0  0  0  0  0  0  0  0  0  0
  -10.6646  -23.4694   29.3411 H   0  0  0  0  0  0  0  0  0  0  0  0
  -12.6060  -25.5837   29.6192 H   0  0  0  0  0  0  0  0  0  0  0  0
  -13.2955  -26.4215   28.5737 H   0  0  0  0  0  0  0  0  0  0  0  0
  -13.1880  -25.0947   25.1646 H   0  0  0  0  0  0  0  0  0  0  0  0
  -14.7987  -25.9725   23.4669 H   0  0  0  0  0  0  0  0  0  0  0  0
  -16.2868  -27.8556   24.0682 H   0  0  0  0  0  0  0  0  0  0  0  0
  -17.4867  -28.8416   26.6499 H   0  0  0  0  0  0  0  0  0  0  0  0
  -16.6239  -30.6694   28.0940 H   0  0  0  0  0  0  0  0  0  0  0  0
  -14.9077  -30.2577   27.6550 H   0  0  0  0  0  0  0  0  0  0  0  0
  -15.4092  -30.6984   25.2399 H   0  0  0  0  0  0  0  0  0  0  0  0
  -17.1295  -31.1110   25.6648 H   0  0  0  0  0  0  0  0  0  0  0  0
  -14.3864  -21.9091   31.5990 H   0  0  0  0  0  0  0  0  0  0  0  0
  -14.1525  -22.8331   33.8979 H   0  0  0  0  0  0  0  0  0  0  0  0
  -12.0862  -24.2152   34.3341 H   0  0  0  0  0  0  0  0  0  0  0  0
  1  2  1  0
  2  3  1  0
  3  4  1  0
  4  5  1  0
  5  6  2  0
  5  7  1  0
  7  8  1  0
  8  9  2  0
  9 10  1  0
 10 11  2  0
 11 12  1  0
 12 13  1  0
 13 14  1  0
 14 15  1  0
 12 16  2  0
  3 17  1  0
 17 18  2  0
 18 19  1  0
 19 20  2  0
 20 21  1  0
 21 22  2  0
 16  8  1  0
 22 17  1  0
 15 13  1  0
  1 23  1  0
  1 24  1  0
  1 25  1  0
  2 26  1  0
  2 27  1  0
  3 28  1  0
  4 29  1  0
  7 30  1  0
  9 31  1  0
 10 32  1  0
 11 33  1  0
 13 34  1  0
 14 35  1  0
 14 36  1  0
 15 37  1  0
 15 38  1  0
 19 39  1  0
 20 40  1  0
 21 41  1  0
M  END
>  <Energy>  (9) 
-33.927112135955277

>  <compound_id>  (9) 
34595

>  <target_id>  (9) 
1

>  <reference_id>  (9) 
82

>  <inspiration_ids>  (9) 
[82, 54]

>  <energy_score>  (9) 
-32.9699726550038

>  <distance_score>  (9) 
5.0961388822100275

>  <path>  (9) 
/opt/xchem-fragalysis-2/maxwin/BulkDock/SCRATCH/511015/C34595-P82/C34595-P82.minimised.mol

>  <scratch_subdir>  (9) 
/opt/xchem-fragalysis-2/maxwin/BulkDock/SCRATCH/511015/C34595-P82

>  <fragmenstein_runtime>  (9) 
18.04945945739746

>  <fragmenstein_outcome>  (9) 
too moved

>  <fragmenstein_mode>  (9) 
expansion

>  <fragmenstein_error>  (9) 


$$$$
C34595-P54
     RDKit          3D

 41 43  0  0  0  0  0  0  0  0999 V2000
  -10.9336  -22.6472   27.2931 C   0  0  0  0  0  0  0  0  0  0  0  0
  -10.7907  -21.9303   28.6308 C   0  0  0  0  0  0  0  0  0  0  0  0
  -10.0616  -22.7755   29.6881 C   0  0  0  0  0  0  0  0  0  0  0  0
  -10.7413  -24.0202   29.8869 N   0  0  0  0  0  0  0  0  0  0  0  0
  -10.6150  -25.0479   31.0093 C   0  0  0  0  0  0  0  0  0  0  0  0
   -9.9053  -25.0870   31.8875 O   0  0  0  0  0  0  0  0  0  0  0  0
  -11.7944  -25.9512   30.6517 N   0  0  0  0  0  0  0  0  0  0  0  0
  -12.3529  -26.9771   31.3363 C   0  0  0  0  0  0  0  0  0  0  0  0
  -11.8459  -27.3307   32.5695 C   0  0  0  0  0  0  0  0  0  0  0  0
  -12.5597  -28.2116   33.3406 C   0  0  0  0  0  0  0  0  0  0  0  0
  -13.7717  -28.6577   32.8620 C   0  0  0  0  0  0  0  0  0  0  0  0
  -14.2210  -28.2534   31.6039 C   0  0  0  0  0  0  0  0  0  0  0  0
  -15.5391  -28.7621   31.0672 C   0  0  0  0  0  0  0  0  0  0  0  0
  -16.5057  -27.8034   30.4086 C   0  0  0  0  0  0  0  0  0  0  0  0
  -16.8335  -28.3830   31.7512 C   0  0  0  0  0  0  0  0  0  0  0  0
  -13.5001  -27.4170   30.8316 N   0  0  0  0  0  0  0  0  0  0  0  0
  -10.0289  -22.1219   31.0750 C   0  0  0  0  0  0  0  0  0  0  0  0
  -11.1128  -21.4129   31.4389 N   0  0  0  0  0  0  0  0  0  0  0  0
  -11.2245  -21.1319   32.7479 C   0  0  0  0  0  0  0  0  0  0  0  0
  -10.3091  -21.5201   33.6939 C   0  0  0  0  0  0  0  0  0  0  0  0
   -9.2009  -22.1725   33.2177 C   0  0  0  0  0  0  0  0  0  0  0  0
   -9.0267  -22.4632   31.9168 N   0  0  0  0  0  0  0  0  0  0  0  0
  -11.4004  -21.9838   26.5610 H   0  0  0  0  0  0  0  0  0  0  0  0
   -9.9601  -22.9633   26.9125 H   0  0  0  0  0  0  0  0  0  0  0  0
  -11.5738  -23.5311   27.3643 H   0  0  0  0  0  0  0  0  0  0  0  0
  -11.8000  -21.6682   28.9729 H   0  0  0  0  0  0  0  0  0  0  0  0
  -10.2597  -20.9838   28.4833 H   0  0  0  0  0  0  0  0  0  0  0  0
   -9.0394  -23.0085   29.3714 H   0  0  0  0  0  0  0  0  0  0  0  0
  -11.5295  -24.2437   29.3141 H   0  0  0  0  0  0  0  0  0  0  0  0
  -12.1621  -25.6864   29.7605 H   0  0  0  0  0  0  0  0  0  0  0  0
  -10.9274  -26.9236   32.9685 H   0  0  0  0  0  0  0  0  0  0  0  0
  -12.1744  -28.5731   34.2870 H   0  0  0  0  0  0  0  0  0  0  0  0
  -14.3647  -29.3559   33.4455 H   0  0  0  0  0  0  0  0  0  0  0  0
  -15.4961  -29.7574   30.6311 H   0  0  0  0  0  0  0  0  0  0  0  0
  -17.0595  -28.1581   29.5473 H   0  0  0  0  0  0  0  0  0  0  0  0
  -16.2412  -26.7525   30.3586 H   0  0  0  0  0  0  0  0  0  0  0  0
  -16.8026  -27.7138   32.6038 H   0  0  0  0  0  0  0  0  0  0  0  0
  -17.6166  -29.1306   31.8031 H   0  0  0  0  0  0  0  0  0  0  0  0
  -12.1264  -20.5981   33.0350 H   0  0  0  0  0  0  0  0  0  0  0  0
  -10.4697  -21.3221   34.7432 H   0  0  0  0  0  0  0  0  0  0  0  0
   -8.4027  -22.5062   33.8730 H   0  0  0  0  0  0  0  0  0  0  0  0
  1  2  1  0
  2  3  1  0
  3  4  1  0
  4  5  1  0
  5  6  2  0
  5  7  1  0
  7  8  1  0
  8  9  2  0
  9 10  1  0
 10 11  2  0
 11 12  1  0
 12 13  1  0
 13 14  1  0
 14 15  1  0
 12 16  2  0
  3 17  1  0
 17 18  2  0
 18 19  1  0
 19 20  2  0
 20 21  1  0
 21 22  2  0
 16  8  1  0
 22 17  1  0
 15 13  1  0
  1 23  1  0
  1 24  1  0
  1 25  1  0
  2 26  1  0
  2 27  1  0
  3 28  1  0
  4 29  1  0
  7 30  1  0
  9 31  1  0
 10 32  1  0
 11 33  1  0
 13 34  1  0
 14 35  1  0
 14 36  1  0
 15 37  1  0
 15 38  1  0
 19 39  1  0
 20 40  1  0
 21 41  1  0
M  END
>  <Energy>  (10) 
-19.136691351978147

>  <compound_id>  (10) 
34595

>  <target_id>  (10) 
1

>  <reference_id>  (10) 
54

>  <inspiration_ids>  (10) 
[82, 54]

>  <energy_score>  (10) 
0.93378911621366

>  <distance_score>  (10) 
3.144276050181721

>  <path>  (10) 
/opt/xchem-fragalysis-2/maxwin/BulkDock/SCRATCH/511015/C34595-P54/C34595-P54.minimised.mol

>  <scratch_subdir>  (10) 
/opt/xchem-fragalysis-2/maxwin/BulkDock/SCRATCH/511015/C34595-P54

>  <fragmenstein_runtime>  (10) 
13.359093427658081

>  <fragmenstein_outcome>  (10) 
too moved

>  <fragmenstein_mode>  (10) 
expansion

>  <fragmenstein_error>  (10) 


$$$$
C34596-P82
     RDKit          3D

 38 39  0  0  0  0  0  0  0  0999 V2000
  -10.4161  -26.3748   30.6788 C   0  0  0  0  0  0  0  0  0  0  0  0
   -9.7954  -25.3707   29.7290 C   0  0  0  0  0  0  0  0  0  0  0  0
  -10.7079  -24.3844   28.9997 C   0  0  0  0  0  0  0  0  0  0  0  0
  -11.6784  -23.7867   29.8356 N   0  0  0  0  0  0  0  0  0  0  0  0
  -11.6745  -23.5496   31.3295 C   0  0  0  0  0  0  0  0  0  0  0  0
  -10.8664  -23.7291   32.0944 O   0  0  0  0  0  0  0  0  0  0  0  0
  -13.1056  -23.0966   31.5060 N   0  0  0  0  0  0  0  0  0  0  0  0
  -13.8157  -22.8755   32.6202 C   0  0  0  0  0  0  0  0  0  0  0  0
  -13.6228  -23.8714   33.5569 C   0  0  0  0  0  0  0  0  0  0  0  0
  -14.7342  -24.2675   34.2600 C   0  0  0  0  0  0  0  0  0  0  0  0
  -15.9055  -23.5563   34.1353 C   0  0  0  0  0  0  0  0  0  0  0  0
  -15.9324  -22.5004   33.2513 C   0  0  0  0  0  0  0  0  0  0  0  0
  -17.1256  -21.8013   33.1917 O   0  0  0  0  0  0  0  0  0  0  0  0
  -17.2044  -20.9397   32.0653 C   0  0  0  0  0  0  0  0  0  0  0  0
  -14.9138  -22.1460   32.4605 N   0  0  0  0  0  0  0  0  0  0  0  0
  -11.4264  -24.8508   27.7811 C   0  0  0  0  0  0  0  0  0  0  0  0
  -11.8188  -23.8330   26.9775 N   0  0  0  0  0  0  0  0  0  0  0  0
  -12.6822  -24.1263   26.0123 C   0  0  0  0  0  0  0  0  0  0  0  0
  -13.1761  -25.3930   25.8436 C   0  0  0  0  0  0  0  0  0  0  0  0
  -12.6995  -26.3622   26.6981 C   0  0  0  0  0  0  0  0  0  0  0  0
  -11.8334  -26.1222   27.6861 N   0  0  0  0  0  0  0  0  0  0  0  0
  -10.7930  -25.9621   31.6109 H   0  0  0  0  0  0  0  0  0  0  0  0
   -9.6714  -27.1261   30.9502 H   0  0  0  0  0  0  0  0  0  0  0  0
  -11.2307  -26.9039   30.1787 H   0  0  0  0  0  0  0  0  0  0  0  0
   -9.0687  -24.8424   30.3329 H   0  0  0  0  0  0  0  0  0  0  0  0
   -9.2422  -25.9182   28.9585 H   0  0  0  0  0  0  0  0  0  0  0  0
  -10.1475  -23.5727   28.5577 H   0  0  0  0  0  0  0  0  0  0  0  0
  -12.5975  -23.5929   29.4644 H   0  0  0  0  0  0  0  0  0  0  0  0
  -13.5284  -22.9598   30.6068 H   0  0  0  0  0  0  0  0  0  0  0  0
  -12.7211  -24.4713   33.6092 H   0  0  0  0  0  0  0  0  0  0  0  0
  -14.7016  -25.1450   34.8970 H   0  0  0  0  0  0  0  0  0  0  0  0
  -16.7890  -23.8276   34.7004 H   0  0  0  0  0  0  0  0  0  0  0  0
  -17.0834  -21.4948   31.1282 H   0  0  0  0  0  0  0  0  0  0  0  0
  -16.4740  -20.1264   32.1361 H   0  0  0  0  0  0  0  0  0  0  0  0
  -18.2016  -20.4891   32.0573 H   0  0  0  0  0  0  0  0  0  0  0  0
  -12.9788  -23.3051   25.3670 H   0  0  0  0  0  0  0  0  0  0  0  0
  -13.8962  -25.6193   25.0688 H   0  0  0  0  0  0  0  0  0  0  0  0
  -13.0259  -27.3943   26.6075 H   0  0  0  0  0  0  0  0  0  0  0  0
  1  2  1  0
  2  3  1  0
  3  4  1  0
  4  5  1  0
  5  6  2  0
  5  7  1  0
  7  8  1  0
  8  9  2  0
  9 10  1  0
 10 11  2  0
 11 12  1  0
 12 13  1  0
 13 14  1  0
 12 15  2  0
  3 16  1  0
 16 17  2  0
 17 18  1  0
 18 19  2  0
 19 20  1  0
 20 21  2  0
 15  8  1  0
 21 16  1  0
  1 22  1  0
  1 23  1  0
  1 24  1  0
  2 25  1  0
  2 26  1  0
  3 27  1  0
  4 28  1  0
  7 29  1  0
  9 30  1  0
 10 31  1  0
 11 32  1  0
 14 33  1  0
 14 34  1  0
 14 35  1  0
 18 36  1  0
 19 37  1  0
 20 38  1  0
M  END
>  <Energy>  (11) 
-26.438164992810464

>  <compound_id>  (11) 
34596

>  <target_id>  (11) 
1

>  <reference_id>  (11) 
82

>  <inspiration_ids>  (11) 
[82, 54]

>  <energy_score>  (11) 
13.006391305693626

>  <distance_score>  (11) 
3.6695296131775423

>  <path>  (11) 
/opt/xchem-fragalysis-2/maxwin/BulkDock/SCRATCH/511015/C34596-P82/C34596-P82.minimised.mol

>  <scratch_subdir>  (11) 
/opt/xchem-fragalysis-2/maxwin/BulkDock/SCRATCH/511015/C34596-P82

>  <fragmenstein_runtime>  (11) 
8.40482497215271

>  <fragmenstein_outcome>  (11) 
too moved

>  <fragmenstein_mode>  (11) 
expansion

>  <fragmenstein_error>  (11) 


$$$$
C34596-P54
     RDKit          3D

 38 39  0  0  0  0  0  0  0  0999 V2000
   -9.0236  -23.1241   32.9368 C   0  0  0  0  0  0  0  0  0  0  0  0
   -8.9209  -23.4222   31.4438 C   0  0  0  0  0  0  0  0  0  0  0  0
  -10.1993  -23.1834   30.6765 C   0  0  0  0  0  0  0  0  0  0  0  0
  -11.0437  -24.3337   30.5672 N   0  0  0  0  0  0  0  0  0  0  0  0
  -11.1499  -25.5553   31.4420 C   0  0  0  0  0  0  0  0  0  0  0  0
  -10.5371  -25.8695   32.3339 O   0  0  0  0  0  0  0  0  0  0  0  0
  -12.3915  -26.1878   30.8274 N   0  0  0  0  0  0  0  0  0  0  0  0
  -13.1427  -27.2465   31.2451 C   0  0  0  0  0  0  0  0  0  0  0  0
  -14.4539  -27.0703   30.8254 C   0  0  0  0  0  0  0  0  0  0  0  0
  -15.4234  -27.1313   31.8072 C   0  0  0  0  0  0  0  0  0  0  0  0
  -15.0720  -27.5652   33.0767 C   0  0  0  0  0  0  0  0  0  0  0  0
  -13.7746  -27.9912   33.2824 C   0  0  0  0  0  0  0  0  0  0  0  0
  -13.5339  -28.6748   34.4510 O   0  0  0  0  0  0  0  0  0  0  0  0
  -12.8762  -29.8992   34.1353 C   0  0  0  0  0  0  0  0  0  0  0  0
  -12.7774  -27.8067   32.4067 N   0  0  0  0  0  0  0  0  0  0  0  0
  -10.0502  -22.8343   29.2026 C   0  0  0  0  0  0  0  0  0  0  0  0
  -10.6270  -21.6832   28.8362 N   0  0  0  0  0  0  0  0  0  0  0  0
  -11.1710  -21.6701   27.6133 C   0  0  0  0  0  0  0  0  0  0  0  0
  -11.2284  -22.7519   26.7663 C   0  0  0  0  0  0  0  0  0  0  0  0
  -10.5546  -23.8601   27.1905 C   0  0  0  0  0  0  0  0  0  0  0  0
   -9.9287  -23.9128   28.3735 N   0  0  0  0  0  0  0  0  0  0  0  0
   -9.2592  -22.0676   33.1029 H   0  0  0  0  0  0  0  0  0  0  0  0
   -8.0681  -23.3342   33.4270 H   0  0  0  0  0  0  0  0  0  0  0  0
   -9.7924  -23.7209   33.4282 H   0  0  0  0  0  0  0  0  0  0  0  0
   -8.1394  -22.7768   31.0386 H   0  0  0  0  0  0  0  0  0  0  0  0
   -8.6107  -24.4591   31.3078 H   0  0  0  0  0  0  0  0  0  0  0  0
  -10.7930  -22.4011   31.1646 H   0  0  0  0  0  0  0  0  0  0  0  0
  -11.6942  -24.4056   29.8107 H   0  0  0  0  0  0  0  0  0  0  0  0
  -12.7331  -25.6074   30.0878 H   0  0  0  0  0  0  0  0  0  0  0  0
  -14.7067  -26.6487   29.8581 H   0  0  0  0  0  0  0  0  0  0  0  0
  -16.4525  -26.8589   31.5889 H   0  0  0  0  0  0  0  0  0  0  0  0
  -15.8204  -27.6805   33.8531 H   0  0  0  0  0  0  0  0  0  0  0  0
  -13.0915  -30.2736   33.1266 H   0  0  0  0  0  0  0  0  0  0  0  0
  -13.2387  -30.6603   34.8318 H   0  0  0  0  0  0  0  0  0  0  0  0
  -11.8040  -29.7660   34.2819 H   0  0  0  0  0  0  0  0  0  0  0  0
  -11.5503  -20.7049   27.3132 H   0  0  0  0  0  0  0  0  0  0  0  0
  -11.7015  -22.6854   25.7965 H   0  0  0  0  0  0  0  0  0  0  0  0
  -10.4823  -24.7532   26.5786 H   0  0  0  0  0  0  0  0  0  0  0  0
  1  2  1  0
  2  3  1  0
  3  4  1  0
  4  5  1  0
  5  6  2  0
  5  7  1  0
  7  8  1  0
  8  9  2  0
  9 10  1  0
 10 11  2  0
 11 12  1  0
 12 13  1  0
 13 14  1  0
 12 15  2  0
  3 16  1  0
 16 17  2  0
 17 18  1  0
 18 19  2  0
 19 20  1  0
 20 21  2  0
 15  8  1  0
 21 16  1  0
  1 22  1  0
  1 23  1  0
  1 24  1  0
  2 25  1  0
  2 26  1  0
  3 27  1  0
  4 28  1  0
  7 29  1  0
  9 30  1  0
 10 31  1  0
 11 32  1  0
 14 33  1  0
 14 34  1  0
 14 35  1  0
 18 36  1  0
 19 37  1  0
 20 38  1  0
M  END
>  <Energy>  (12) 
-0.41967390461154697

>  <compound_id>  (12) 
34596

>  <target_id>  (12) 
1

>  <reference_id>  (12) 
54

>  <inspiration_ids>  (12) 
[82, 54]

>  <energy_score>  (12) 
39.02488239389055

>  <distance_score>  (12) 
2.9822132077407266

>  <path>  (12) 
/opt/xchem-fragalysis-2/maxwin/BulkDock/SCRATCH/511015/C34596-P54/C34596-P54.minimised.mol

>  <scratch_subdir>  (12) 
/opt/xchem-fragalysis-2/maxwin/BulkDock/SCRATCH/511015/C34596-P54

>  <fragmenstein_runtime>  (12) 
4.822482109069824

>  <fragmenstein_outcome>  (12) 
too moved

>  <fragmenstein_mode>  (12) 
expansion

>  <fragmenstein_error>  (12) 


$$$$
C34597-P82
     RDKit          3D

 35 38  0  0  0  0  0  0  0  0999 V2000
  -10.4452  -26.2185   32.5873 C   0  0  0  0  0  0  0  0  0  0  0  0
  -10.4948  -27.0117   31.4545 C   0  0  0  0  0  0  0  0  0  0  0  0
  -10.3448  -26.5925   30.2071 N   0  0  0  0  0  0  0  0  0  0  0  0
   -9.9602  -25.3377   30.1473 C   0  0  0  0  0  0  0  0  0  0  0  0
  -10.5124  -24.5345   29.1652 N   0  0  0  0  0  0  0  0  0  0  0  0
  -10.5334  -24.8199   27.7852 C   0  0  0  0  0  0  0  0  0  0  0  0
  -11.9351  -24.3308   27.7942 C   0  0  0  0  0  0  0  0  0  0  0  0
  -12.7960  -25.1534   26.8715 C   0  0  0  0  0  0  0  0  0  0  0  0
  -12.7117  -23.9556   25.8908 C   0  0  0  0  0  0  0  0  0  0  0  0
  -12.2547  -23.0802   27.0813 C   0  0  0  0  0  0  0  0  0  0  0  0
  -11.9723  -24.4315   29.2732 C   0  0  0  0  0  0  0  0  0  0  0  0
  -12.1966  -23.4138   30.5074 C   0  0  0  0  0  0  0  0  0  0  0  0
  -11.7451  -22.1058   30.6293 C   0  0  0  0  0  0  0  0  0  0  0  0
  -11.5936  -21.5215   31.9025 C   0  0  0  0  0  0  0  0  0  0  0  0
  -12.0524  -22.1639   33.0269 C   0  0  0  0  0  0  0  0  0  0  0  0
  -12.5660  -23.3823   32.9750 N   0  0  0  0  0  0  0  0  0  0  0  0
  -12.6154  -23.9419   31.7383 C   0  0  0  0  0  0  0  0  0  0  0  0
   -9.5269  -24.6428   31.1989 N   0  0  0  0  0  0  0  0  0  0  0  0
   -9.8107  -25.0570   32.4118 C   0  0  0  0  0  0  0  0  0  0  0  0
  -10.6589  -26.5732   33.5776 H   0  0  0  0  0  0  0  0  0  0  0  0
  -10.6618  -28.0796   31.5453 H   0  0  0  0  0  0  0  0  0  0  0  0
  -10.3699  -25.8762   27.5519 H   0  0  0  0  0  0  0  0  0  0  0  0
   -9.8632  -24.1893   27.2103 H   0  0  0  0  0  0  0  0  0  0  0  0
  -12.3753  -26.0845   26.4769 H   0  0  0  0  0  0  0  0  0  0  0  0
  -13.7867  -25.3875   27.2460 H   0  0  0  0  0  0  0  0  0  0  0  0
  -13.6488  -23.6773   25.4052 H   0  0  0  0  0  0  0  0  0  0  0  0
  -11.9313  -24.0657   25.1305 H   0  0  0  0  0  0  0  0  0  0  0  0
  -13.0380  -22.5608   27.6087 H   0  0  0  0  0  0  0  0  0  0  0  0
  -11.4500  -22.3723   26.9205 H   0  0  0  0  0  0  0  0  0  0  0  0
  -12.4342  -25.3976   29.5260 H   0  0  0  0  0  0  0  0  0  0  0  0
  -11.3515  -21.6027   29.7499 H   0  0  0  0  0  0  0  0  0  0  0  0
  -11.0704  -20.5882   32.0351 H   0  0  0  0  0  0  0  0  0  0  0  0
  -12.0090  -21.7053   34.0060 H   0  0  0  0  0  0  0  0  0  0  0  0
  -12.9326  -24.9692   31.7649 H   0  0  0  0  0  0  0  0  0  0  0  0
   -9.5251  -24.3963   33.2010 H   0  0  0  0  0  0  0  0  0  0  0  0
  1  2  2  0
  2  3  1  0
  3  4  2  0
  4  5  1  0
  5  6  1  0
  6  7  1  0
  7  8  1  0
  8  9  1  0
  9 10  1  0
  7 11  1  0
 11 12  1  0
 12 13  2  0
 13 14  1  0
 14 15  2  0
 15 16  1  0
 16 17  2  0
  4 18  1  0
 18 19  2  0
 19  1  1  0
 11  5  1  0
 17 12  1  0
 10  7  1  0
  1 20  1  0
  2 21  1  0
  6 22  1  0
  6 23  1  0
  8 24  1  0
  8 25  1  0
  9 26  1  0
  9 27  1  0
 10 28  1  0
 10 29  1  0
 11 30  1  0
 13 31  1  0
 14 32  1  0
 15 33  1  0
 17 34  1  0
 19 35  1  0
M  END
>  <Energy>  (13) 
42.248636690253164

>  <compound_id>  (13) 
34597

>  <target_id>  (13) 
1

>  <reference_id>  (13) 
82

>  <inspiration_ids>  (13) 
[82, 54]

>  <energy_score>  (13) 
2.196764230455102

>  <distance_score>  (13) 
2.822238407698384

>  <path>  (13) 
/opt/xchem-fragalysis-2/maxwin/BulkDock/SCRATCH/511015/C34597-P82/C34597-P82.minimised.mol

>  <scratch_subdir>  (13) 
/opt/xchem-fragalysis-2/maxwin/BulkDock/SCRATCH/511015/C34597-P82

>  <fragmenstein_runtime>  (13) 
7.6733949184417725

>  <fragmenstein_outcome>  (13) 
too moved

>  <fragmenstein_mode>  (13) 
expansion

>  <fragmenstein_error>  (13) 


$$$$
C34597-P54
     RDKit          3D

 35 38  0  0  0  0  0  0  0  0999 V2000
  -13.0967  -27.7148   32.3217 C   0  0  0  0  0  0  0  0  0  0  0  0
  -13.8008  -27.2416   31.2465 C   0  0  0  0  0  0  0  0  0  0  0  0
  -13.3096  -26.3412   30.3890 N   0  0  0  0  0  0  0  0  0  0  0  0
  -12.0509  -25.9269   30.5756 C   0  0  0  0  0  0  0  0  0  0  0  0
  -11.6106  -24.9376   29.7324 N   0  0  0  0  0  0  0  0  0  0  0  0
  -12.3799  -24.0366   28.9296 C   0  0  0  0  0  0  0  0  0  0  0  0
  -11.0425  -23.7009   28.3608 C   0  0  0  0  0  0  0  0  0  0  0  0
  -10.7391  -24.4950   27.0983 C   0  0  0  0  0  0  0  0  0  0  0  0
  -11.0636  -23.1894   26.3380 C   0  0  0  0  0  0  0  0  0  0  0  0
  -10.7926  -22.4172   27.6582 C   0  0  0  0  0  0  0  0  0  0  0  0
  -10.4087  -24.1574   29.6574 C   0  0  0  0  0  0  0  0  0  0  0  0
  -10.2188  -23.3186   31.0012 C   0  0  0  0  0  0  0  0  0  0  0  0
  -10.8274  -22.0937   31.3092 C   0  0  0  0  0  0  0  0  0  0  0  0
  -10.6929  -21.5115   32.5743 C   0  0  0  0  0  0  0  0  0  0  0  0
   -9.9359  -22.1628   33.5287 C   0  0  0  0  0  0  0  0  0  0  0  0
   -9.2883  -23.3160   33.2972 N   0  0  0  0  0  0  0  0  0  0  0  0
   -9.4453  -23.8409   32.0551 C   0  0  0  0  0  0  0  0  0  0  0  0
  -11.2855  -26.3632   31.5765 N   0  0  0  0  0  0  0  0  0  0  0  0
  -11.8194  -27.2489   32.4341 C   0  0  0  0  0  0  0  0  0  0  0  0
  -13.5118  -28.4365   33.0110 H   0  0  0  0  0  0  0  0  0  0  0  0
  -14.8187  -27.5670   31.0522 H   0  0  0  0  0  0  0  0  0  0  0  0
  -12.8654  -23.2380   29.4922 H   0  0  0  0  0  0  0  0  0  0  0  0
  -13.1025  -24.5254   28.2709 H   0  0  0  0  0  0  0  0  0  0  0  0
   -9.7051  -24.8355   27.0372 H   0  0  0  0  0  0  0  0  0  0  0  0
  -11.3869  -25.3419   26.8516 H   0  0  0  0  0  0  0  0  0  0  0  0
  -12.1070  -23.1204   26.0071 H   0  0  0  0  0  0  0  0  0  0  0  0
  -10.4144  -22.9835   25.4880 H   0  0  0  0  0  0  0  0  0  0  0  0
  -11.4743  -21.5908   27.8720 H   0  0  0  0  0  0  0  0  0  0  0  0
   -9.7618  -22.0724   27.7776 H   0  0  0  0  0  0  0  0  0  0  0  0
   -9.5249  -24.7746   29.4677 H   0  0  0  0  0  0  0  0  0  0  0  0
  -11.4572  -21.5951   30.5782 H   0  0  0  0  0  0  0  0  0  0  0  0
  -11.2056  -20.5862   32.8161 H   0  0  0  0  0  0  0  0  0  0  0  0
   -9.8569  -21.7710   34.5356 H   0  0  0  0  0  0  0  0  0  0  0  0
   -8.9326  -24.7897   31.9238 H   0  0  0  0  0  0  0  0  0  0  0  0
  -11.1681  -27.5806   33.2378 H   0  0  0  0  0  0  0  0  0  0  0  0
  1  2  2  0
  2  3  1  0
  3  4  2  0
  4  5  1  0
  5  6  1  0
  6  7  1  0
  7  8  1  0
  8  9  1  0
  9 10  1  0
  7 11  1  0
 11 12  1  0
 12 13  2  0
 13 14  1  0
 14 15  2  0
 15 16  1  0
 16 17  2  0
  4 18  1  0
 18 19  2  0
 19  1  1  0
 11  5  1  0
 17 12  1  0
 10  7  1  0
  1 20  1  0
  2 21  1  0
  6 22  1  0
  6 23  1  0
  8 24  1  0
  8 25  1  0
  9 26  1  0
  9 27  1  0
 10 28  1  0
 10 29  1  0
 11 30  1  0
 13 31  1  0
 14 32  1  0
 15 33  1  0
 17 34  1  0
 19 35  1  0
M  END
>  <Energy>  (14) 
5.1378057901920737

>  <compound_id>  (14) 
34597

>  <target_id>  (14) 
1

>  <reference_id>  (14) 
54

>  <inspiration_ids>  (14) 
[82, 54]

>  <energy_score>  (14) 
-34.91406666960452

>  <distance_score>  (14) 
2.5092138060256706

>  <path>  (14) 
/opt/xchem-fragalysis-2/maxwin/BulkDock/SCRATCH/511015/C34597-P54/C34597-P54.minimised.mol

>  <scratch_subdir>  (14) 
/opt/xchem-fragalysis-2/maxwin/BulkDock/SCRATCH/511015/C34597-P54

>  <fragmenstein_runtime>  (14) 
7.735299587249756

>  <fragmenstein_outcome>  (14) 
too moved

>  <fragmenstein_mode>  (14) 
expansion

>  <fragmenstein_error>  (14) 


$$$$
C34598-P82
     RDKit          3D

 35 38  0  0  0  0  0  0  0  0999 V2000
  -14.5866  -22.7288   33.3720 C   0  0  0  0  0  0  0  0  0  0  0  0
  -14.5677  -21.9256   32.2640 C   0  0  0  0  0  0  0  0  0  0  0  0
  -13.8635  -22.1665   31.1536 N   0  0  0  0  0  0  0  0  0  0  0  0
  -13.2890  -23.3660   31.0790 C   0  0  0  0  0  0  0  0  0  0  0  0
  -12.5412  -23.6891   29.9452 N   0  0  0  0  0  0  0  0  0  0  0  0
  -11.9747  -22.9732   28.8429 C   0  0  0  0  0  0  0  0  0  0  0  0
  -11.6306  -24.3461   28.3504 C   0  0  0  0  0  0  0  0  0  0  0  0
  -12.5700  -24.9862   27.3405 C   0  0  0  0  0  0  0  0  0  0  0  0
  -11.3586  -25.7854   26.8415 C   0  0  0  0  0  0  0  0  0  0  0  0
  -10.4646  -24.7241   27.5239 C   0  0  0  0  0  0  0  0  0  0  0  0
  -11.7070  -24.8231   29.7730 C   0  0  0  0  0  0  0  0  0  0  0  0
  -10.6089  -24.7138   30.8695 C   0  0  0  0  0  0  0  0  0  0  0  0
  -10.6819  -23.7521   31.8740 C   0  0  0  0  0  0  0  0  0  0  0  0
  -10.4432  -24.1890   33.1128 C   0  0  0  0  0  0  0  0  0  0  0  0
   -9.4802  -25.0589   33.3542 N   0  0  0  0  0  0  0  0  0  0  0  0
   -8.9928  -25.6578   32.2711 C   0  0  0  0  0  0  0  0  0  0  0  0
   -9.6643  -25.6813   31.0764 C   0  0  0  0  0  0  0  0  0  0  0  0
  -13.2451  -24.2083   32.1358 N   0  0  0  0  0  0  0  0  0  0  0  0
  -13.8567  -23.8667   33.2701 C   0  0  0  0  0  0  0  0  0  0  0  0
  -15.1656  -22.4893   34.2492 H   0  0  0  0  0  0  0  0  0  0  0  0
  -15.1466  -21.0085   32.2564 H   0  0  0  0  0  0  0  0  0  0  0  0
  -11.1465  -22.3236   29.1320 H   0  0  0  0  0  0  0  0  0  0  0  0
  -12.6711  -22.4184   28.2251 H   0  0  0  0  0  0  0  0  0  0  0  0
  -12.9643  -24.2940   26.5871 H   0  0  0  0  0  0  0  0  0  0  0  0
  -13.3856  -25.6025   27.7168 H   0  0  0  0  0  0  0  0  0  0  0  0
  -11.2723  -25.8687   25.7558 H   0  0  0  0  0  0  0  0  0  0  0  0
  -11.2835  -26.7824   27.2867 H   0  0  0  0  0  0  0  0  0  0  0  0
   -9.6323  -25.1439   28.0861 H   0  0  0  0  0  0  0  0  0  0  0  0
  -10.1347  -23.9452   26.8459 H   0  0  0  0  0  0  0  0  0  0  0  0
  -12.2529  -25.7667   29.8656 H   0  0  0  0  0  0  0  0  0  0  0  0
  -11.2391  -22.8297   31.8027 H   0  0  0  0  0  0  0  0  0  0  0  0
  -11.0526  -23.7993   33.9166 H   0  0  0  0  0  0  0  0  0  0  0  0
   -8.0950  -26.2263   32.4278 H   0  0  0  0  0  0  0  0  0  0  0  0
   -9.5171  -26.4736   30.3578 H   0  0  0  0  0  0  0  0  0  0  0  0
  -13.7738  -24.5716   34.0873 H   0  0  0  0  0  0  0  0  0  0  0  0
  1  2  2  0
  2  3  1  0
  3  4  2  0
  4  5  1  0
  5  6  1  0
  6  7  1  0
  7  8  1  0
  8  9  1  0
  9 10  1  0
  7 11  1  0
 11 12  1  0
 12 13  2  0
 13 14  1  0
 14 15  2  0
 15 16  1  0
 16 17  2  0
  4 18  1  0
 18 19  2  0
 19  1  1  0
 11  5  1  0
 17 12  1  0
 10  7  1  0
  1 20  1  0
  2 21  1  0
  6 22  1  0
  6 23  1  0
  8 24  1  0
  8 25  1  0
  9 26  1  0
  9 27  1  0
 10 28  1  0
 10 29  1  0
 11 30  1  0
 13 31  1  0
 14 32  1  0
 16 33  1  0
 17 34  1  0
 19 35  1  0
M  END
>  <Energy>  (15) 
49.402950213585555

>  <compound_id>  (15) 
34598

>  <target_id>  (15) 
1

>  <reference_id>  (15) 
82

>  <inspiration_ids>  (15) 
[82, 54]

>  <energy_score>  (15) 
12.142331309708908

>  <distance_score>  (15) 
2.61833795471797

>  <path>  (15) 
/opt/xchem-fragalysis-2/maxwin/BulkDock/SCRATCH/511015/C34598-P82/C34598-P82.minimised.mol

>  <scratch_subdir>  (15) 
/opt/xchem-fragalysis-2/maxwin/BulkDock/SCRATCH/511015/C34598-P82

>  <fragmenstein_runtime>  (15) 
7.816033601760864

>  <fragmenstein_outcome>  (15) 
too moved

>  <fragmenstein_mode>  (15) 
expansion

>  <fragmenstein_error>  (15) 


$$$$
C34598-P54
     RDKit          3D

 35 38  0  0  0  0  0  0  0  0999 V2000
  -11.3769  -20.2190   31.9420 C   0  0  0  0  0  0  0  0  0  0  0  0
  -11.6312  -20.3103   30.5909 C   0  0  0  0  0  0  0  0  0  0  0  0
  -11.8891  -21.4472   29.9362 N   0  0  0  0  0  0  0  0  0  0  0  0
  -11.7968  -22.5551   30.6644 C   0  0  0  0  0  0  0  0  0  0  0  0
  -11.8994  -23.7828   30.0109 N   0  0  0  0  0  0  0  0  0  0  0  0
  -12.0047  -23.8925   28.5901 C   0  0  0  0  0  0  0  0  0  0  0  0
  -10.9017  -24.8977   28.6753 C   0  0  0  0  0  0  0  0  0  0  0  0
  -11.1712  -26.2158   27.9894 C   0  0  0  0  0  0  0  0  0  0  0  0
  -10.2341  -25.7268   26.8679 C   0  0  0  0  0  0  0  0  0  0  0  0
   -9.7058  -24.6325   27.8304 C   0  0  0  0  0  0  0  0  0  0  0  0
  -10.9066  -24.8329   30.1697 C   0  0  0  0  0  0  0  0  0  0  0  0
   -9.7364  -24.3898   31.2039 C   0  0  0  0  0  0  0  0  0  0  0  0
   -9.0070  -23.1997   31.1341 C   0  0  0  0  0  0  0  0  0  0  0  0
   -8.4629  -22.6557   32.3067 C   0  0  0  0  0  0  0  0  0  0  0  0
   -8.3540  -23.2853   33.4825 N   0  0  0  0  0  0  0  0  0  0  0  0
   -8.8635  -24.5079   33.4911 C   0  0  0  0  0  0  0  0  0  0  0  0
   -9.6103  -25.0327   32.4461 C   0  0  0  0  0  0  0  0  0  0  0  0
  -11.5017  -22.5600   31.9741 N   0  0  0  0  0  0  0  0  0  0  0  0
  -11.3275  -21.3997   32.6102 C   0  0  0  0  0  0  0  0  0  0  0  0
  -11.1913  -19.2712   32.4277 H   0  0  0  0  0  0  0  0  0  0  0  0
  -11.6062  -19.4198   29.9698 H   0  0  0  0  0  0  0  0  0  0  0  0
  -12.9917  -24.2648   28.2976 H   0  0  0  0  0  0  0  0  0  0  0  0
  -11.7818  -22.9838   28.0236 H   0  0  0  0  0  0  0  0  0  0  0  0
  -10.8023  -27.1005   28.5175 H   0  0  0  0  0  0  0  0  0  0  0  0
  -12.2002  -26.4148   27.6752 H   0  0  0  0  0  0  0  0  0  0  0  0
  -10.7701  -25.3227   26.0048 H   0  0  0  0  0  0  0  0  0  0  0  0
   -9.4979  -26.4599   26.5326 H   0  0  0  0  0  0  0  0  0  0  0  0
   -8.7544  -24.8833   28.3064 H   0  0  0  0  0  0  0  0  0  0  0  0
   -9.6365  -23.6242   27.4134 H   0  0  0  0  0  0  0  0  0  0  0  0
  -11.4237  -25.7129   30.5871 H   0  0  0  0  0  0  0  0  0  0  0  0
   -9.0732  -22.5997   30.2378 H   0  0  0  0  0  0  0  0  0  0  0  0
   -8.1393  -21.6303   32.3592 H   0  0  0  0  0  0  0  0  0  0  0  0
   -8.7100  -25.0591   34.4057 H   0  0  0  0  0  0  0  0  0  0  0  0
  -10.1878  -25.9255   32.6496 H   0  0  0  0  0  0  0  0  0  0  0  0
  -11.1226  -21.4582   33.6734 H   0  0  0  0  0  0  0  0  0  0  0  0
  1  2  2  0
  2  3  1  0
  3  4  2  0
  4  5  1  0
  5  6  1  0
  6  7  1  0
  7  8  1  0
  8  9  1  0
  9 10  1  0
  7 11  1  0
 11 12  1  0
 12 13  2  0
 13 14  1  0
 14 15  2  0
 15 16  1  0
 16 17  2  0
  4 18  1  0
 18 19  2  0
 19  1  1  0
 11  5  1  0
 17 12  1  0
 10  7  1  0
  1 20  1  0
  2 21  1  0
  6 22  1  0
  6 23  1  0
  8 24  1  0
  8 25  1  0
  9 26  1  0
  9 27  1  0
 10 28  1  0
 10 29  1  0
 11 30  1  0
 13 31  1  0
 14 32  1  0
 16 33  1  0
 17 34  1  0
 19 35  1  0
M  END
>  <Energy>  (16) 
22.883023016313906

>  <compound_id>  (16) 
34598

>  <target_id>  (16) 
1

>  <reference_id>  (16) 
54

>  <inspiration_ids>  (16) 
[82, 54]

>  <energy_score>  (16) 
-14.377595887563189

>  <distance_score>  (16) 
2.698372701207047

>  <path>  (16) 
/opt/xchem-fragalysis-2/maxwin/BulkDock/SCRATCH/511015/C34598-P54/C34598-P54.minimised.mol

>  <scratch_subdir>  (16) 
/opt/xchem-fragalysis-2/maxwin/BulkDock/SCRATCH/511015/C34598-P54

>  <fragmenstein_runtime>  (16) 
7.737271308898926

>  <fragmenstein_outcome>  (16) 
too moved

>  <fragmenstein_mode>  (16) 
expansion

>  <fragmenstein_error>  (16) 


$$$$
C34600-P82
     RDKit          3D

 52 54  0  0  0  0  0  0  0  0999 V2000
  -18.3309  -20.6560   33.7196 C   0  0  0  0  0  0  0  0  0  0  0  0
  -17.0347  -21.2584   34.2957 C   0  0  0  0  0  0  0  0  0  0  0  0
  -17.2735  -21.5085   35.7836 C   0  0  0  0  0  0  0  0  0  0  0  0
  -15.8095  -20.2614   34.0156 C   0  0  0  0  0  0  0  0  0  0  0  0
  -15.9105  -19.1490   33.6712 O   0  0  0  0  0  0  0  0  0  0  0  0
  -14.5453  -21.1457   34.2061 N   0  0  0  0  0  0  0  0  0  0  0  0
  -13.1832  -20.8764   33.9252 C   0  0  0  0  0  0  0  0  0  0  0  0
  -12.2685  -22.1338   33.9814 C   0  0  0  0  0  0  0  0  0  0  0  0
  -11.4866  -22.5174   32.8501 N   0  0  0  0  0  0  0  0  0  0  0  0
  -11.2378  -21.5665   31.8342 C   0  0  0  0  0  0  0  0  0  0  0  0
  -11.6744  -22.1385   30.4909 C   0  0  0  0  0  0  0  0  0  0  0  0
  -11.1781  -23.4944   30.2557 N   0  0  0  0  0  0  0  0  0  0  0  0
  -11.4340  -23.9879   28.9999 C   0  0  0  0  0  0  0  0  0  0  0  0
  -11.7580  -23.1085   28.0376 N   0  0  0  0  0  0  0  0  0  0  0  0
  -12.0003  -23.5900   26.8148 C   0  0  0  0  0  0  0  0  0  0  0  0
  -11.9138  -24.9178   26.5050 C   0  0  0  0  0  0  0  0  0  0  0  0
  -11.5458  -25.7384   27.5369 C   0  0  0  0  0  0  0  0  0  0  0  0
  -11.2903  -25.3021   28.7755 N   0  0  0  0  0  0  0  0  0  0  0  0
  -11.0210  -24.4688   31.3330 C   0  0  0  0  0  0  0  0  0  0  0  0
  -10.8387  -23.8133   32.7157 C   0  0  0  0  0  0  0  0  0  0  0  0
  -16.6082  -22.5697   33.4997 C   0  0  0  0  0  0  0  0  0  0  0  0
  -16.2951  -22.3145   32.1661 C   0  0  0  0  0  0  0  0  0  0  0  0
  -15.0934  -22.7865   31.6994 C   0  0  0  0  0  0  0  0  0  0  0  0
  -14.3828  -23.7192   32.4221 C   0  0  0  0  0  0  0  0  0  0  0  0
  -14.8784  -24.1275   33.6370 C   0  0  0  0  0  0  0  0  0  0  0  0
  -15.9339  -23.5239   34.2163 N   0  0  0  0  0  0  0  0  0  0  0  0
  -19.1422  -21.3928   33.7177 H   0  0  0  0  0  0  0  0  0  0  0  0
  -18.6569  -19.7937   34.3134 H   0  0  0  0  0  0  0  0  0  0  0  0
  -18.2101  -20.2924   32.6940 H   0  0  0  0  0  0  0  0  0  0  0  0
  -17.4224  -20.5647   36.3200 H   0  0  0  0  0  0  0  0  0  0  0  0
  -16.4463  -22.0205   36.2645 H   0  0  0  0  0  0  0  0  0  0  0  0
  -18.1604  -22.1337   35.9402 H   0  0  0  0  0  0  0  0  0  0  0  0
  -14.8251  -22.0913   34.4370 H   0  0  0  0  0  0  0  0  0  0  0  0
  -13.3309  -20.7326   32.8804 H   0  0  0  0  0  0  0  0  0  0  0  0
  -12.8057  -19.9766   34.4124 H   0  0  0  0  0  0  0  0  0  0  0  0
  -12.8397  -23.0304   34.1625 H   0  0  0  0  0  0  0  0  0  0  0  0
  -11.6764  -21.9938   34.8667 H   0  0  0  0  0  0  0  0  0  0  0  0
  -10.2172  -21.2053   31.9038 H   0  0  0  0  0  0  0  0  0  0  0  0
  -11.7416  -20.6441   32.0091 H   0  0  0  0  0  0  0  0  0  0  0  0
  -11.3136  -21.4490   29.7182 H   0  0  0  0  0  0  0  0  0  0  0  0
  -12.7588  -22.1357   30.4258 H   0  0  0  0  0  0  0  0  0  0  0  0
  -12.2713  -22.8571   26.0633 H   0  0  0  0  0  0  0  0  0  0  0  0
  -12.1163  -25.2900   25.5142 H   0  0  0  0  0  0  0  0  0  0  0  0
  -11.4433  -26.8079   27.3944 H   0  0  0  0  0  0  0  0  0  0  0  0
  -10.1400  -25.0959   31.1400 H   0  0  0  0  0  0  0  0  0  0  0  0
  -11.8777  -25.1485   31.3604 H   0  0  0  0  0  0  0  0  0  0  0  0
  -11.1835  -24.5198   33.4802 H   0  0  0  0  0  0  0  0  0  0  0  0
   -9.7602  -23.6956   32.8609 H   0  0  0  0  0  0  0  0  0  0  0  0
  -16.8080  -21.5544   31.5893 H   0  0  0  0  0  0  0  0  0  0  0  0
  -14.7242  -22.4265   30.7618 H   0  0  0  0  0  0  0  0  0  0  0  0
  -13.4973  -24.1532   32.0030 H   0  0  0  0  0  0  0  0  0  0  0  0
  -14.3657  -24.8483   34.2654 H   0  0  0  0  0  0  0  0  0  0  0  0
  1  2  1  0
  2  3  1  0
  2  4  1  0
  4  5  2  0
  4  6  1  0
  6  7  1  0
  7  8  1  0
  8  9  1  0
  9 10  1  0
 10 11  1  0
 11 12  1  0
 12 13  1  0
 13 14  2  0
 14 15  1  0
 15 16  2  0
 16 17  1  0
 17 18  2  0
 12 19  1  0
 19 20  1  0
  2 21  1  0
 21 22  2  0
 22 23  1  0
 23 24  2  0
 24 25  1  0
 25 26  2  0
 20  9  1  0
 26 21  1  0
 18 13  1  0
  1 27  1  0
  1 28  1  0
  1 29  1  0
  3 30  1  0
  3 31  1  0
  3 32  1  0
  6 33  1  0
  7 34  1  0
  7 35  1  0
  8 36  1  0
  8 37  1  0
 10 38  1  0
 10 39  1  0
 11 40  1  0
 11 41  1  0
 15 42  1  0
 16 43  1  0
 17 44  1  0
 19 45  1  0
 19 46  1  0
 20 47  1  0
 20 48  1  0
 22 49  1  0
 23 50  1  0
 24 51  1  0
 25 52  1  0
M  END
>  <Energy>  (17) 
133.70742142901219

>  <compound_id>  (17) 
34600

>  <target_id>  (17) 
1

>  <reference_id>  (17) 
82

>  <inspiration_ids>  (17) 
[82, 54]

>  <energy_score>  (17) 
43.046791361848136

>  <distance_score>  (17) 
3.026523385160417

>  <path>  (17) 
/opt/xchem-fragalysis-2/maxwin/BulkDock/SCRATCH/511015/C34600-P82/C34600-P82.minimised.mol

>  <scratch_subdir>  (17) 
/opt/xchem-fragalysis-2/maxwin/BulkDock/SCRATCH/511015/C34600-P82

>  <fragmenstein_runtime>  (17) 
9.279645919799805

>  <fragmenstein_outcome>  (17) 
too moved

>  <fragmenstein_mode>  (17) 
expansion

>  <fragmenstein_error>  (17) 


$$$$
C34600-P54
     RDKit          3D

 52 54  0  0  0  0  0  0  0  0999 V2000
  -14.1266  -26.8097   30.6630 C   0  0  0  0  0  0  0  0  0  0  0  0
  -12.8423  -27.5937   30.9238 C   0  0  0  0  0  0  0  0  0  0  0  0
  -13.3493  -28.9532   31.4792 C   0  0  0  0  0  0  0  0  0  0  0  0
  -11.8614  -26.9368   31.9925 C   0  0  0  0  0  0  0  0  0  0  0  0
  -11.7794  -27.5078   33.0461 O   0  0  0  0  0  0  0  0  0  0  0  0
  -11.1361  -25.7839   31.4816 N   0  0  0  0  0  0  0  0  0  0  0  0
  -10.0097  -25.0197   32.0525 C   0  0  0  0  0  0  0  0  0  0  0  0
   -9.9549  -23.4882   32.1113 C   0  0  0  0  0  0  0  0  0  0  0  0
   -9.9691  -22.7385   30.8548 N   0  0  0  0  0  0  0  0  0  0  0  0
  -11.2906  -22.1336   30.6681 C   0  0  0  0  0  0  0  0  0  0  0  0
  -11.3826  -21.3285   29.3755 C   0  0  0  0  0  0  0  0  0  0  0  0
  -10.9853  -22.0900   28.1956 N   0  0  0  0  0  0  0  0  0  0  0  0
  -11.9501  -22.9089   27.6442 C   0  0  0  0  0  0  0  0  0  0  0  0
  -12.0870  -22.8256   26.3185 N   0  0  0  0  0  0  0  0  0  0  0  0
  -13.1687  -23.4003   25.7707 C   0  0  0  0  0  0  0  0  0  0  0  0
  -14.0236  -24.2159   26.4554 C   0  0  0  0  0  0  0  0  0  0  0  0
  -13.7504  -24.3259   27.7898 C   0  0  0  0  0  0  0  0  0  0  0  0
  -12.7528  -23.6621   28.4128 N   0  0  0  0  0  0  0  0  0  0  0  0
   -9.7121  -22.7731   28.3272 C   0  0  0  0  0  0  0  0  0  0  0  0
   -9.5575  -23.5061   29.6683 C   0  0  0  0  0  0  0  0  0  0  0  0
  -12.0713  -27.7316   29.6178 C   0  0  0  0  0  0  0  0  0  0  0  0
  -11.4991  -28.9189   29.2105 C   0  0  0  0  0  0  0  0  0  0  0  0
  -10.6441  -28.9137   28.1175 C   0  0  0  0  0  0  0  0  0  0  0  0
  -10.4258  -27.7442   27.4050 C   0  0  0  0  0  0  0  0  0  0  0  0
  -11.0775  -26.6126   27.8270 C   0  0  0  0  0  0  0  0  0  0  0  0
  -11.8611  -26.5812   28.9252 N   0  0  0  0  0  0  0  0  0  0  0  0
  -13.9195  -25.8563   30.1892 H   0  0  0  0  0  0  0  0  0  0  0  0
  -14.7950  -27.3488   29.9796 H   0  0  0  0  0  0  0  0  0  0  0  0
  -14.6810  -26.6299   31.5905 H   0  0  0  0  0  0  0  0  0  0  0  0
  -12.5313  -29.6097   31.7804 H   0  0  0  0  0  0  0  0  0  0  0  0
  -13.9722  -28.8069   32.3706 H   0  0  0  0  0  0  0  0  0  0  0  0
  -13.9528  -29.4935   30.7398 H   0  0  0  0  0  0  0  0  0  0  0  0
  -11.4089  -25.6225   30.5083 H   0  0  0  0  0  0  0  0  0  0  0  0
   -9.8173  -25.4212   33.0508 H   0  0  0  0  0  0  0  0  0  0  0  0
   -9.1412  -25.2833   31.4629 H   0  0  0  0  0  0  0  0  0  0  0  0
  -10.6910  -23.0930   32.8176 H   0  0  0  0  0  0  0  0  0  0  0  0
   -8.9919  -23.2433   32.5815 H   0  0  0  0  0  0  0  0  0  0  0  0
  -11.5160  -21.4562   31.5009 H   0  0  0  0  0  0  0  0  0  0  0  0
  -12.0476  -22.9168   30.6661 H   0  0  0  0  0  0  0  0  0  0  0  0
  -10.7406  -20.4427   29.4453 H   0  0  0  0  0  0  0  0  0  0  0  0
  -12.3962  -20.9543   29.2662 H   0  0  0  0  0  0  0  0  0  0  0  0
  -13.3299  -23.1568   24.7262 H   0  0  0  0  0  0  0  0  0  0  0  0
  -14.8738  -24.7008   26.0024 H   0  0  0  0  0  0  0  0  0  0  0  0
  -14.3923  -24.9259   28.4211 H   0  0  0  0  0  0  0  0  0  0  0  0
   -8.9342  -22.0210   28.2264 H   0  0  0  0  0  0  0  0  0  0  0  0
   -9.5510  -23.4803   27.5062 H   0  0  0  0  0  0  0  0  0  0  0  0
  -10.1432  -24.4176   29.5668 H   0  0  0  0  0  0  0  0  0  0  0  0
   -8.5083  -23.8028   29.7699 H   0  0  0  0  0  0  0  0  0  0  0  0
  -11.6720  -29.8471   29.7388 H   0  0  0  0  0  0  0  0  0  0  0  0
  -10.1503  -29.8354   27.8305 H   0  0  0  0  0  0  0  0  0  0  0  0
   -9.7703  -27.7244   26.5420 H   0  0  0  0  0  0  0  0  0  0  0  0
  -10.9651  -25.6723   27.2974 H   0  0  0  0  0  0  0  0  0  0  0  0
  1  2  1  0
  2  3  1  0
  2  4  1  0
  4  5  2  0
  4  6  1  0
  6  7  1  0
  7  8  1  0
  8  9  1  0
  9 10  1  0
 10 11  1  0
 11 12  1  0
 12 13  1  0
 13 14  2  0
 14 15  1  0
 15 16  2  0
 16 17  1  0
 17 18  2  0
 12 19  1  0
 19 20  1  0
  2 21  1  0
 21 22  2  0
 22 23  1  0
 23 24  2  0
 24 25  1  0
 25 26  2  0
 20  9  1  0
 26 21  1  0
 18 13  1  0
  1 27  1  0
  1 28  1  0
  1 29  1  0
  3 30  1  0
  3 31  1  0
  3 32  1  0
  6 33  1  0
  7 34  1  0
  7 35  1  0
  8 36  1  0
  8 37  1  0
 10 38  1  0
 10 39  1  0
 11 40  1  0
 11 41  1  0
 15 42  1  0
 16 43  1  0
 17 44  1  0
 19 45  1  0
 19 46  1  0
 20 47  1  0
 20 48  1  0
 22 49  1  0
 23 50  1  0
 24 51  1  0
 25 52  1  0
M  END
>  <Energy>  (18) 
68.883134415226493

>  <compound_id>  (18) 
34600

>  <target_id>  (18) 
1

>  <reference_id>  (18) 
54

>  <inspiration_ids>  (18) 
[82, 54]

>  <energy_score>  (18) 
-32.26866965082999

>  <distance_score>  (18) 
4.208887040892589

>  <path>  (18) 
/opt/xchem-fragalysis-2/maxwin/BulkDock/SCRATCH/511015/C34600-P54/C34600-P54.minimised.mol

>  <scratch_subdir>  (18) 
/opt/xchem-fragalysis-2/maxwin/BulkDock/SCRATCH/511015/C34600-P54

>  <fragmenstein_runtime>  (18) 
12.573948860168457

>  <fragmenstein_outcome>  (18) 
too moved

>  <fragmenstein_mode>  (18) 
expansion

>  <fragmenstein_error>  (18) 


$$$$
C34601-P82
     RDKit          3D

 32 34  0  0  0  0  0  0  0  0999 V2000
  -11.4694  -24.5866   26.5208 C   0  0  0  0  0  0  0  0  0  0  0  0
  -10.7041  -24.4542   27.7588 N   0  0  0  0  0  0  0  0  0  0  0  0
  -10.4139  -25.7844   28.4249 C   0  0  0  0  0  0  0  0  0  0  0  0
  -10.2454  -25.8287   29.9527 C   0  0  0  0  0  0  0  0  0  0  0  0
  -11.3109  -26.1436   30.6820 N   0  0  0  0  0  0  0  0  0  0  0  0
  -11.2727  -25.7714   31.9834 C   0  0  0  0  0  0  0  0  0  0  0  0
  -10.1660  -25.4526   32.6775 C   0  0  0  0  0  0  0  0  0  0  0  0
   -9.0926  -25.3356   31.8792 C   0  0  0  0  0  0  0  0  0  0  0  0
   -9.1454  -25.3575   30.5257 N   0  0  0  0  0  0  0  0  0  0  0  0
  -11.2221  -23.4656   28.5482 C   0  0  0  0  0  0  0  0  0  0  0  0
  -10.9975  -22.1688   28.4976 N   0  0  0  0  0  0  0  0  0  0  0  0
  -11.5127  -21.4854   29.6186 N   0  0  0  0  0  0  0  0  0  0  0  0
  -12.1934  -22.3035   30.3818 C   0  0  0  0  0  0  0  0  0  0  0  0
  -12.8053  -22.1883   31.6907 C   0  0  0  0  0  0  0  0  0  0  0  0
  -14.2008  -22.1464   31.7818 C   0  0  0  0  0  0  0  0  0  0  0  0
  -14.8200  -22.7914   32.8340 C   0  0  0  0  0  0  0  0  0  0  0  0
  -14.0259  -23.4614   33.7374 C   0  0  0  0  0  0  0  0  0  0  0  0
  -12.6487  -23.3193   33.6528 C   0  0  0  0  0  0  0  0  0  0  0  0
  -12.0123  -22.6594   32.6764 N   0  0  0  0  0  0  0  0  0  0  0  0
  -12.3744  -23.8208   29.7060 S   0  0  0  0  0  0  0  0  0  0  0  0
  -11.0149  -25.3257   25.8574 H   0  0  0  0  0  0  0  0  0  0  0  0
  -12.4951  -24.9233   26.7186 H   0  0  0  0  0  0  0  0  0  0  0  0
  -11.5261  -23.6409   25.9747 H   0  0  0  0  0  0  0  0  0  0  0  0
   -9.4949  -26.1780   27.9875 H   0  0  0  0  0  0  0  0  0  0  0  0
  -11.2127  -26.4931   28.1670 H   0  0  0  0  0  0  0  0  0  0  0  0
  -12.2242  -25.7132   32.4850 H   0  0  0  0  0  0  0  0  0  0  0  0
  -10.1530  -25.3377   33.7407 H   0  0  0  0  0  0  0  0  0  0  0  0
   -8.1180  -25.1965   32.3231 H   0  0  0  0  0  0  0  0  0  0  0  0
  -14.8158  -21.8163   30.9551 H   0  0  0  0  0  0  0  0  0  0  0  0
  -15.9009  -22.8888   32.8665 H   0  0  0  0  0  0  0  0  0  0  0  0
  -14.4714  -24.0777   34.5084 H   0  0  0  0  0  0  0  0  0  0  0  0
  -12.0041  -23.7881   34.3866 H   0  0  0  0  0  0  0  0  0  0  0  0
  1  2  1  0
  2  3  1  0
  3  4  1  0
  4  5  2  0
  5  6  1  0
  6  7  2  0
  7  8  1  0
  8  9  2  0
  2 10  1  0
 10 11  2  0
 11 12  1  0
 12 13  2  0
 13 14  1  0
 14 15  2  0
 15 16  1  0
 16 17  2  0
 17 18  1  0
 18 19  2  0
 13 20  1  0
  9  4  1  0
 20 10  1  0
 19 14  1  0
  1 21  1  0
  1 22  1  0
  1 23  1  0
  3 24  1  0
  3 25  1  0
  6 26  1  0
  7 27  1  0
  8 28  1  0
 15 29  1  0
 16 30  1  0
 17 31  1  0
 18 32  1  0
M  END
>  <Energy>  (19) 
120.22733876779648

>  <compound_id>  (19) 
34601

>  <target_id>  (19) 
1

>  <reference_id>  (19) 
82

>  <inspiration_ids>  (19) 
[82, 54]

>  <energy_score>  (19) 
-31.363969283843005

>  <distance_score>  (19) 
2.8855622696722127

>  <path>  (19) 
/opt/xchem-fragalysis-2/maxwin/BulkDock/SCRATCH/511015/C34601-P82/C34601-P82.minimised.mol

>  <scratch_subdir>  (19) 
/opt/xchem-fragalysis-2/maxwin/BulkDock/SCRATCH/511015/C34601-P82

>  <fragmenstein_runtime>  (19) 
7.657787084579468

>  <fragmenstein_outcome>  (19) 
too moved

>  <fragmenstein_mode>  (19) 
expansion

>  <fragmenstein_error>  (19) 


$$$$
C34601-P54
     RDKit          3D

 32 34  0  0  0  0  0  0  0  0999 V2000
  -11.9571  -22.9266   26.0680 C   0  0  0  0  0  0  0  0  0  0  0  0
  -12.1792  -23.7443   27.2491 N   0  0  0  0  0  0  0  0  0  0  0  0
  -12.3379  -25.1969   26.9910 C   0  0  0  0  0  0  0  0  0  0  0  0
  -12.7169  -25.9933   28.2467 C   0  0  0  0  0  0  0  0  0  0  0  0
  -13.9770  -25.8684   28.7167 N   0  0  0  0  0  0  0  0  0  0  0  0
  -14.2789  -26.5598   29.8308 C   0  0  0  0  0  0  0  0  0  0  0  0
  -13.3752  -27.3381   30.5124 C   0  0  0  0  0  0  0  0  0  0  0  0
  -12.1195  -27.4008   29.9618 C   0  0  0  0  0  0  0  0  0  0  0  0
  -11.7666  -26.7499   28.8380 N   0  0  0  0  0  0  0  0  0  0  0  0
  -11.2704  -23.4793   28.2194 C   0  0  0  0  0  0  0  0  0  0  0  0
  -10.0484  -23.9562   28.2751 N   0  0  0  0  0  0  0  0  0  0  0  0
   -9.4446  -23.6576   29.4708 N   0  0  0  0  0  0  0  0  0  0  0  0
  -10.2351  -22.9613   30.2696 C   0  0  0  0  0  0  0  0  0  0  0  0
   -9.9669  -22.6705   31.6717 C   0  0  0  0  0  0  0  0  0  0  0  0
  -10.6831  -21.7546   32.4360 C   0  0  0  0  0  0  0  0  0  0  0  0
  -10.3817  -21.6421   33.7831 C   0  0  0  0  0  0  0  0  0  0  0  0
   -9.3665  -22.4241   34.3127 C   0  0  0  0  0  0  0  0  0  0  0  0
   -8.6762  -23.2784   33.4805 C   0  0  0  0  0  0  0  0  0  0  0  0
   -8.9716  -23.4300   32.1850 N   0  0  0  0  0  0  0  0  0  0  0  0
  -11.6938  -22.4667   29.5254 S   0  0  0  0  0  0  0  0  0  0  0  0
  -12.8162  -22.9918   25.3932 H   0  0  0  0  0  0  0  0  0  0  0  0
  -11.8298  -21.8759   26.3387 H   0  0  0  0  0  0  0  0  0  0  0  0
  -11.0499  -23.2333   25.5360 H   0  0  0  0  0  0  0  0  0  0  0  0
  -11.4220  -25.6170   26.5542 H   0  0  0  0  0  0  0  0  0  0  0  0
  -13.1403  -25.3423   26.2572 H   0  0  0  0  0  0  0  0  0  0  0  0
  -15.3063  -26.4596   30.1710 H   0  0  0  0  0  0  0  0  0  0  0  0
  -13.6410  -27.8887   31.4034 H   0  0  0  0  0  0  0  0  0  0  0  0
  -11.3411  -28.0124   30.4066 H   0  0  0  0  0  0  0  0  0  0  0  0
  -11.4847  -21.1498   32.0262 H   0  0  0  0  0  0  0  0  0  0  0  0
  -10.9437  -20.9589   34.4163 H   0  0  0  0  0  0  0  0  0  0  0  0
   -9.1239  -22.3519   35.3583 H   0  0  0  0  0  0  0  0  0  0  0  0
   -7.8502  -23.8865   33.8249 H   0  0  0  0  0  0  0  0  0  0  0  0
  1  2  1  0
  2  3  1  0
  3  4  1  0
  4  5  2  0
  5  6  1  0
  6  7  2  0
  7  8  1  0
  8  9  2  0
  2 10  1  0
 10 11  2  0
 11 12  1  0
 12 13  2  0
 13 14  1  0
 14 15  2  0
 15 16  1  0
 16 17  2  0
 17 18  1  0
 18 19  2  0
 13 20  1  0
  9  4  1  0
 20 10  1  0
 19 14  1  0
  1 21  1  0
  1 22  1  0
  1 23  1  0
  3 24  1  0
  3 25  1  0
  6 26  1  0
  7 27  1  0
  8 28  1  0
 15 29  1  0
 16 30  1  0
 17 31  1  0
 18 32  1  0
M  END
>  <Energy>  (20) 
72.464102016008255

>  <compound_id>  (20) 
34601

>  <target_id>  (20) 
1

>  <reference_id>  (20) 
54

>  <inspiration_ids>  (20) 
[82, 54]

>  <energy_score>  (20) 
-79.1272060356298

>  <distance_score>  (20) 
2.779851408092642

>  <path>  (20) 
/opt/xchem-fragalysis-2/maxwin/BulkDock/SCRATCH/511015/C34601-P54/C34601-P54.minimised.mol

>  <scratch_subdir>  (20) 
/opt/xchem-fragalysis-2/maxwin/BulkDock/SCRATCH/511015/C34601-P54

>  <fragmenstein_runtime>  (20) 
7.472891330718994

>  <fragmenstein_outcome>  (20) 
too moved

>  <fragmenstein_mode>  (20) 
expansion

>  <fragmenstein_error>  (20) 


$$$$
C34602-P82
     RDKit          3D

 33 35  0  0  0  0  0  0  0  0999 V2000
  -11.3204  -21.4209   30.6540 O   0  0  0  0  0  0  0  0  0  0  0  0
  -12.2487  -22.1078   30.4810 C   0  0  0  0  0  0  0  0  0  0  0  0
  -13.3781  -22.4365   31.3854 N   0  0  0  0  0  0  0  0  0  0  0  0
  -13.6117  -22.0887   32.7614 C   0  0  0  0  0  0  0  0  0  0  0  0
  -14.8594  -22.7655   33.2609 C   0  0  0  0  0  0  0  0  0  0  0  0
  -16.0288  -22.1806   32.9362 N   0  0  0  0  0  0  0  0  0  0  0  0
  -17.1399  -22.8382   33.3091 C   0  0  0  0  0  0  0  0  0  0  0  0
  -17.1323  -24.0234   34.0010 C   0  0  0  0  0  0  0  0  0  0  0  0
  -15.8930  -24.5304   34.2857 C   0  0  0  0  0  0  0  0  0  0  0  0
  -14.7439  -23.9398   33.9084 N   0  0  0  0  0  0  0  0  0  0  0  0
  -12.5877  -22.9707   29.3550 N   0  0  0  0  0  0  0  0  0  0  0  0
  -11.8906  -23.2908   28.2459 C   0  0  0  0  0  0  0  0  0  0  0  0
  -10.6398  -23.0684   27.9528 N   0  0  0  0  0  0  0  0  0  0  0  0
   -9.9591  -24.2949   28.0361 N   0  0  0  0  0  0  0  0  0  0  0  0
  -10.7218  -25.1530   28.7041 C   0  0  0  0  0  0  0  0  0  0  0  0
  -10.6417  -25.3709   30.1711 C   0  0  0  0  0  0  0  0  0  0  0  0
  -11.7209  -25.2367   31.0324 C   0  0  0  0  0  0  0  0  0  0  0  0
  -11.5379  -25.1614   32.4083 C   0  0  0  0  0  0  0  0  0  0  0  0
  -10.2785  -25.3378   32.9113 C   0  0  0  0  0  0  0  0  0  0  0  0
   -9.2529  -25.4812   32.0102 C   0  0  0  0  0  0  0  0  0  0  0  0
   -9.4044  -25.4655   30.6661 N   0  0  0  0  0  0  0  0  0  0  0  0
  -12.2574  -24.9827   27.8514 S   0  0  0  0  0  0  0  0  0  0  0  0
  -14.0544  -22.9985   30.8864 H   0  0  0  0  0  0  0  0  0  0  0  0
  -13.7183  -21.0144   32.8653 H   0  0  0  0  0  0  0  0  0  0  0  0
  -12.7351  -22.3904   33.3426 H   0  0  0  0  0  0  0  0  0  0  0  0
  -18.0758  -22.3641   33.0280 H   0  0  0  0  0  0  0  0  0  0  0  0
  -18.0420  -24.5263   34.2949 H   0  0  0  0  0  0  0  0  0  0  0  0
  -15.7782  -25.4588   34.8387 H   0  0  0  0  0  0  0  0  0  0  0  0
  -13.4202  -23.4829   29.5705 H   0  0  0  0  0  0  0  0  0  0  0  0
  -12.7260  -25.1369   30.6631 H   0  0  0  0  0  0  0  0  0  0  0  0
  -12.3826  -25.0204   33.0763 H   0  0  0  0  0  0  0  0  0  0  0  0
  -10.1120  -25.4223   33.9701 H   0  0  0  0  0  0  0  0  0  0  0  0
   -8.2394  -25.6403   32.3600 H   0  0  0  0  0  0  0  0  0  0  0  0
  1  2  2  0
  2  3  1  0
  3  4  1  0
  4  5  1  0
  5  6  2  0
  6  7  1  0
  7  8  2  0
  8  9  1  0
  9 10  2  0
  2 11  1  0
 11 12  1  0
 12 13  2  0
 13 14  1  0
 14 15  2  0
 15 16  1  0
 16 17  2  0
 17 18  1  0
 18 19  2  0
 19 20  1  0
 20 21  2  0
 15 22  1  0
 10  5  1  0
 22 12  1  0
 21 16  1  0
  3 23  1  0
  4 24  1  0
  4 25  1  0
  7 26  1  0
  8 27  1  0
  9 28  1  0
 11 29  1  0
 17 30  1  0
 18 31  1  0
 19 32  1  0
 20 33  1  0
M  END
>  <Energy>  (21) 
70.497658875687932

>  <compound_id>  (21) 
34602

>  <target_id>  (21) 
1

>  <reference_id>  (21) 
82

>  <inspiration_ids>  (21) 
[82, 54]

>  <energy_score>  (21) 
15.061482300397387

>  <distance_score>  (21) 
3.751256560931052

>  <path>  (21) 
/opt/xchem-fragalysis-2/maxwin/BulkDock/SCRATCH/511015/C34602-P82/C34602-P82.minimised.mol

>  <scratch_subdir>  (21) 
/opt/xchem-fragalysis-2/maxwin/BulkDock/SCRATCH/511015/C34602-P82

>  <fragmenstein_runtime>  (21) 
8.047388553619385

>  <fragmenstein_outcome>  (21) 
too moved

>  <fragmenstein_mode>  (21) 
expansion

>  <fragmenstein_error>  (21) 


$$$$
C34602-P54
     RDKit          3D

 33 35  0  0  0  0  0  0  0  0999 V2000
  -14.0206  -24.0992   28.8920 O   0  0  0  0  0  0  0  0  0  0  0  0
  -13.2225  -24.7529   28.4281 C   0  0  0  0  0  0  0  0  0  0  0  0
  -13.0759  -26.2794   28.4150 N   0  0  0  0  0  0  0  0  0  0  0  0
  -13.8517  -27.2898   29.0647 C   0  0  0  0  0  0  0  0  0  0  0  0
  -13.1995  -27.2986   30.4775 C   0  0  0  0  0  0  0  0  0  0  0  0
  -13.4791  -28.2716   31.3473 N   0  0  0  0  0  0  0  0  0  0  0  0
  -12.7368  -28.3050   32.4716 C   0  0  0  0  0  0  0  0  0  0  0  0
  -11.7148  -27.4364   32.7405 C   0  0  0  0  0  0  0  0  0  0  0  0
  -11.5146  -26.4597   31.8094 C   0  0  0  0  0  0  0  0  0  0  0  0
  -12.2600  -26.3441   30.7187 N   0  0  0  0  0  0  0  0  0  0  0  0
  -11.9191  -24.3720   27.7187 N   0  0  0  0  0  0  0  0  0  0  0  0
  -11.3409  -23.1671   27.5427 C   0  0  0  0  0  0  0  0  0  0  0  0
  -11.8690  -21.9968   27.7992 N   0  0  0  0  0  0  0  0  0  0  0  0
  -11.5661  -21.6226   29.1043 N   0  0  0  0  0  0  0  0  0  0  0  0
  -10.6099  -22.3803   29.6240 C   0  0  0  0  0  0  0  0  0  0  0  0
  -10.2307  -22.4452   31.0462 C   0  0  0  0  0  0  0  0  0  0  0  0
  -10.8483  -21.6093   31.9745 C   0  0  0  0  0  0  0  0  0  0  0  0
  -10.4542  -21.6623   33.3096 C   0  0  0  0  0  0  0  0  0  0  0  0
   -9.4613  -22.5522   33.6895 C   0  0  0  0  0  0  0  0  0  0  0  0
   -8.9102  -23.3655   32.7168 C   0  0  0  0  0  0  0  0  0  0  0  0
   -9.2755  -23.3460   31.4105 N   0  0  0  0  0  0  0  0  0  0  0  0
   -9.8221  -23.3108   28.3690 S   0  0  0  0  0  0  0  0  0  0  0  0
  -12.2957  -26.5373   27.8449 H   0  0  0  0  0  0  0  0  0  0  0  0
  -14.8963  -26.9825   29.1425 H   0  0  0  0  0  0  0  0  0  0  0  0
  -13.7199  -28.2512   28.5656 H   0  0  0  0  0  0  0  0  0  0  0  0
  -12.9662  -29.1266   33.1458 H   0  0  0  0  0  0  0  0  0  0  0  0
  -11.0727  -27.5667   33.5969 H   0  0  0  0  0  0  0  0  0  0  0  0
  -10.7222  -25.7218   31.9010 H   0  0  0  0  0  0  0  0  0  0  0  0
  -11.4028  -25.1976   27.4996 H   0  0  0  0  0  0  0  0  0  0  0  0
  -11.6319  -20.9191   31.6710 H   0  0  0  0  0  0  0  0  0  0  0  0
  -10.9317  -21.0150   34.0425 H   0  0  0  0  0  0  0  0  0  0  0  0
   -9.1302  -22.6068   34.7177 H   0  0  0  0  0  0  0  0  0  0  0  0
   -8.1288  -24.0760   32.9730 H   0  0  0  0  0  0  0  0  0  0  0  0
  1  2  2  0
  2  3  1  0
  3  4  1  0
  4  5  1  0
  5  6  2  0
  6  7  1  0
  7  8  2  0
  8  9  1  0
  9 10  2  0
  2 11  1  0
 11 12  1  0
 12 13  2  0
 13 14  1  0
 14 15  2  0
 15 16  1  0
 16 17  2  0
 17 18  1  0
 18 19  2  0
 19 20  1  0
 20 21  2  0
 15 22  1  0
 10  5  1  0
 22 12  1  0
 21 16  1  0
  3 23  1  0
  4 24  1  0
  4 25  1  0
  7 26  1  0
  8 27  1  0
  9 28  1  0
 11 29  1  0
 17 30  1  0
 18 31  1  0
 19 32  1  0
 20 33  1  0
M  END
>  <Energy>  (22) 
52.700768670366514

>  <compound_id>  (22) 
34602

>  <target_id>  (22) 
1

>  <reference_id>  (22) 
54

>  <inspiration_ids>  (22) 
[82, 54]

>  <energy_score>  (22) 
2.2162394691651173

>  <distance_score>  (22) 
2.3382104385874545

>  <path>  (22) 
/opt/xchem-fragalysis-2/maxwin/BulkDock/SCRATCH/511015/C34602-P54/C34602-P54.minimised.mol

>  <scratch_subdir>  (22) 
/opt/xchem-fragalysis-2/maxwin/BulkDock/SCRATCH/511015/C34602-P54

>  <fragmenstein_runtime>  (22) 
4.203054666519165

>  <fragmenstein_outcome>  (22) 
too moved

>  <fragmenstein_mode>  (22) 
expansion

>  <fragmenstein_error>  (22) 


$$$$
C34603-P82
     RDKit          3D

 41 44  0  0  0  0  0  0  0  0999 V2000
  -10.9492  -23.4116   28.1968 C   0  0  0  0  0  0  0  0  0  0  0  0
  -11.8865  -22.8788   27.3571 C   0  0  0  0  0  0  0  0  0  0  0  0
  -12.2979  -23.6030   26.2553 C   0  0  0  0  0  0  0  0  0  0  0  0
  -11.7391  -24.8510   26.0321 C   0  0  0  0  0  0  0  0  0  0  0  0
  -12.4677  -25.8025   25.1927 C   0  0  0  0  0  0  0  0  0  0  0  0
  -13.7372  -25.6373   24.8351 N   0  0  0  0  0  0  0  0  0  0  0  0
  -14.2462  -26.7806   24.2591 N   0  0  0  0  0  0  0  0  0  0  0  0
  -13.5914  -27.8255   24.7320 C   0  0  0  0  0  0  0  0  0  0  0  0
  -14.1347  -28.6254   25.7040 N   0  0  0  0  0  0  0  0  0  0  0  0
  -13.5238  -29.9040   26.0474 C   0  0  0  0  0  0  0  0  0  0  0  0
  -13.5746  -30.1997   27.5495 C   0  0  0  0  0  0  0  0  0  0  0  0
  -12.5699  -29.3900   28.3737 C   0  0  0  0  0  0  0  0  0  0  0  0
  -12.7627  -27.9618   28.6227 N   0  0  0  0  0  0  0  0  0  0  0  0
  -11.8913  -27.0897   29.3624 C   0  0  0  0  0  0  0  0  0  0  0  0
  -10.8456  -27.5190   30.0272 N   0  0  0  0  0  0  0  0  0  0  0  0
  -10.2283  -26.7012   30.9129 C   0  0  0  0  0  0  0  0  0  0  0  0
  -10.7002  -25.4864   31.3116 C   0  0  0  0  0  0  0  0  0  0  0  0
  -11.8027  -25.1047   30.6208 C   0  0  0  0  0  0  0  0  0  0  0  0
  -12.3098  -25.8316   29.5988 N   0  0  0  0  0  0  0  0  0  0  0  0
  -13.2865  -27.1950   27.5243 C   0  0  0  0  0  0  0  0  0  0  0  0
  -14.5400  -27.7827   26.8370 C   0  0  0  0  0  0  0  0  0  0  0  0
  -11.8745  -27.4084   24.6991 S   0  0  0  0  0  0  0  0  0  0  0  0
  -10.7495  -25.3547   26.7954 N   0  0  0  0  0  0  0  0  0  0  0  0
  -10.3817  -24.6227   27.8635 C   0  0  0  0  0  0  0  0  0  0  0  0
  -10.7376  -22.8843   29.1088 H   0  0  0  0  0  0  0  0  0  0  0  0
  -12.2937  -21.9161   27.6040 H   0  0  0  0  0  0  0  0  0  0  0  0
  -13.0986  -23.2401   25.6204 H   0  0  0  0  0  0  0  0  0  0  0  0
  -12.4908  -29.9916   25.6914 H   0  0  0  0  0  0  0  0  0  0  0  0
  -14.0890  -30.6853   25.5248 H   0  0  0  0  0  0  0  0  0  0  0  0
  -14.5855  -30.1433   27.9651 H   0  0  0  0  0  0  0  0  0  0  0  0
  -13.2905  -31.2561   27.6617 H   0  0  0  0  0  0  0  0  0  0  0  0
  -12.6240  -29.8834   29.3494 H   0  0  0  0  0  0  0  0  0  0  0  0
  -11.6391  -29.5371   27.8344 H   0  0  0  0  0  0  0  0  0  0  0  0
   -9.3086  -27.1044   31.3052 H   0  0  0  0  0  0  0  0  0  0  0  0
  -10.2386  -24.8975   32.0863 H   0  0  0  0  0  0  0  0  0  0  0  0
  -12.3300  -24.1785   30.8257 H   0  0  0  0  0  0  0  0  0  0  0  0
  -13.5119  -26.1428   27.7322 H   0  0  0  0  0  0  0  0  0  0  0  0
  -12.4089  -27.2071   26.9294 H   0  0  0  0  0  0  0  0  0  0  0  0
  -15.2070  -28.3144   27.5216 H   0  0  0  0  0  0  0  0  0  0  0  0
  -15.1795  -26.9678   26.4765 H   0  0  0  0  0  0  0  0  0  0  0  0
   -9.6437  -25.0937   28.5045 H   0  0  0  0  0  0  0  0  0  0  0  0
  1  2  2  0
  2  3  1  0
  3  4  2  0
  4  5  1  0
  5  6  2  0
  6  7  1  0
  7  8  2  0
  8  9  1  0
  9 10  1  0
 10 11  1  0
 11 12  1  0
 12 13  1  0
 13 14  1  0
 14 15  2  0
 15 16  1  0
 16 17  2  0
 17 18  1  0
 18 19  2  0
 13 20  1  0
 20 21  1  0
  8 22  1  0
  4 23  1  0
 23 24  2  0
 24  1  1  0
 22  5  1  0
 21  9  1  0
 19 14  1  0
  1 25  1  0
  2 26  1  0
  3 27  1  0
 10 28  1  0
 10 29  1  0
 11 30  1  0
 11 31  1  0
 12 32  1  0
 12 33  1  0
 16 34  1  0
 17 35  1  0
 18 36  1  0
 20 37  1  0
 20 38  1  0
 21 39  1  0
 21 40  1  0
 24 41  1  0
M  END
>  <Energy>  (23) 
83.401851000026298

>  <compound_id>  (23) 
34603

>  <target_id>  (23) 
1

>  <reference_id>  (23) 
82

>  <inspiration_ids>  (23) 
[82, 54]

>  <energy_score>  (23) 
-21.294774381375447

>  <distance_score>  (23) 
5.165152249990454

>  <path>  (23) 
/opt/xchem-fragalysis-2/maxwin/BulkDock/SCRATCH/511015/C34603-P82/C34603-P82.minimised.mol

>  <scratch_subdir>  (23) 
/opt/xchem-fragalysis-2/maxwin/BulkDock/SCRATCH/511015/C34603-P82

>  <fragmenstein_runtime>  (23) 
11.97548770904541

>  <fragmenstein_outcome>  (23) 
too moved

>  <fragmenstein_mode>  (23) 
expansion

>  <fragmenstein_error>  (23) 


$$$$
C34603-P54
     RDKit          3D

 41 44  0  0  0  0  0  0  0  0999 V2000
  -11.4860  -20.8882   29.7245 C   0  0  0  0  0  0  0  0  0  0  0  0
  -12.4883  -21.7534   30.0105 C   0  0  0  0  0  0  0  0  0  0  0  0
  -12.5911  -23.0332   29.3742 C   0  0  0  0  0  0  0  0  0  0  0  0
  -11.6360  -23.6630   28.5698 C   0  0  0  0  0  0  0  0  0  0  0  0
  -11.2532  -25.5386   28.1385 C   0  0  0  0  0  0  0  0  0  0  0  0
  -11.8617  -26.7823   28.2338 N   0  0  0  0  0  0  0  0  0  0  0  0
  -12.3147  -27.1589   26.9404 N   0  0  0  0  0  0  0  0  0  0  0  0
  -11.7957  -26.2109   26.1723 C   0  0  0  0  0  0  0  0  0  0  0  0
  -12.1288  -24.8575   26.3087 N   0  0  0  0  0  0  0  0  0  0  0  0
  -13.4506  -24.8612   27.4311 C   0  0  0  0  0  0  0  0  0  0  0  0
  -13.2996  -25.4913   29.1860 C   0  0  0  0  0  0  0  0  0  0  0  0
  -11.7430  -25.4249   30.2869 C   0  0  0  0  0  0  0  0  0  0  0  0
  -10.1357  -24.8073   29.8198 N   0  0  0  0  0  0  0  0  0  0  0  0
   -9.5850  -24.2374   30.9751 C   0  0  0  0  0  0  0  0  0  0  0  0
   -9.5565  -25.0136   32.0703 N   0  0  0  0  0  0  0  0  0  0  0  0
   -9.0152  -24.5181   33.1934 C   0  0  0  0  0  0  0  0  0  0  0  0
   -8.7185  -23.2052   33.3573 C   0  0  0  0  0  0  0  0  0  0  0  0
   -8.8951  -22.4588   32.2313 C   0  0  0  0  0  0  0  0  0  0  0  0
   -9.2416  -22.9518   31.0209 N   0  0  0  0  0  0  0  0  0  0  0  0
   -9.4349  -24.3121   28.1999 C   0  0  0  0  0  0  0  0  0  0  0  0
  -10.5467  -24.0050   26.5753 C   0  0  0  0  0  0  0  0  0  0  0  0
  -10.1247  -26.5437   26.7115 S   0  0  0  0  0  0  0  0  0  0  0  0
  -10.7808  -22.6167   28.2418 N   0  0  0  0  0  0  0  0  0  0  0  0
  -10.6964  -21.3471   28.7431 C   0  0  0  0  0  0  0  0  0  0  0  0
  -11.3901  -19.9029   30.1557 H   0  0  0  0  0  0  0  0  0  0  0  0
  -13.2564  -21.4085   30.6838 H   0  0  0  0  0  0  0  0  0  0  0  0
  -13.5716  -23.4180   29.4775 H   0  0  0  0  0  0  0  0  0  0  0  0
  -13.8784  -23.8571   27.3962 H   0  0  0  0  0  0  0  0  0  0  0  0
  -14.2140  -25.5072   26.9728 H   0  0  0  0  0  0  0  0  0  0  0  0
  -14.1793  -25.1384   29.7249 H   0  0  0  0  0  0  0  0  0  0  0  0
  -13.6240  -26.5509   29.1831 H   0  0  0  0  0  0  0  0  0  0  0  0
  -11.9863  -24.8191   31.1511 H   0  0  0  0  0  0  0  0  0  0  0  0
  -11.5638  -26.4496   30.6441 H   0  0  0  0  0  0  0  0  0  0  0  0
   -8.8234  -25.2410   33.9737 H   0  0  0  0  0  0  0  0  0  0  0  0
   -8.3452  -22.7828   34.2747 H   0  0  0  0  0  0  0  0  0  0  0  0
   -8.7341  -21.3932   32.2923 H   0  0  0  0  0  0  0  0  0  0  0  0
   -8.8257  -23.4194   28.3985 H   0  0  0  0  0  0  0  0  0  0  0  0
   -8.6748  -25.0767   28.0141 H   0  0  0  0  0  0  0  0  0  0  0  0
  -10.7390  -22.9580   26.2899 H   0  0  0  0  0  0  0  0  0  0  0  0
   -9.9769  -24.3011   25.6966 H   0  0  0  0  0  0  0  0  0  0  0  0
   -9.9241  -20.7256   28.3180 H   0  0  0  0  0  0  0  0  0  0  0  0
  1  2  2  0
  2  3  1  0
  3  4  2  0
  4  5  1  0
  5  6  2  0
  6  7  1  0
  7  8  2  0
  8  9  1  0
  9 10  1  0
 10 11  1  0
 11 12  1  0
 12 13  1  0
 13 14  1  0
 14 15  2  0
 15 16  1  0
 16 17  2  0
 17 18  1  0
 18 19  2  0
 13 20  1  0
 20 21  1  0
  8 22  1  0
  4 23  1  0
 23 24  2  0
 24  1  1  0
 22  5  1  0
 21  9  1  0
 19 14  1  0
  1 25  1  0
  2 26  1  0
  3 27  1  0
 10 28  1  0
 10 29  1  0
 11 30  1  0
 11 31  1  0
 12 32  1  0
 12 33  1  0
 16 34  1  0
 17 35  1  0
 18 36  1  0
 20 37  1  0
 20 38  1  0
 21 39  1  0
 21 40  1  0
 24 41  1  0
M  END
>  <Energy>  (24) 
833.50637769993955

>  <compound_id>  (24) 
34603

>  <target_id>  (24) 
1

>  <reference_id>  (24) 
54

>  <inspiration_ids>  (24) 
[82, 54]

>  <energy_score>  (24) 
728.8097523185346

>  <distance_score>  (24) 
3.286987069241916

>  <path>  (24) 
/opt/xchem-fragalysis-2/maxwin/BulkDock/SCRATCH/511015/C34603-P54/C34603-P54.minimised.mol

>  <scratch_subdir>  (24) 
/opt/xchem-fragalysis-2/maxwin/BulkDock/SCRATCH/511015/C34603-P54

>  <fragmenstein_runtime>  (24) 
9.053528547286987

>  <fragmenstein_outcome>  (24) 
too moved

>  <fragmenstein_mode>  (24) 
expansion

>  <fragmenstein_error>  (24) 


$$$$
C34604-P82
     RDKit          3D

 46 49  0  0  0  0  0  0  0  0999 V2000
  -12.4817  -23.4974   34.3521 C   0  0  0  0  0  0  0  0  0  0  0  0
  -11.6498  -24.1749   33.4056 C   0  0  0  0  0  0  0  0  0  0  0  0
  -12.1269  -25.4407   32.9934 O   0  0  0  0  0  0  0  0  0  0  0  0
  -10.9759  -26.1458   32.7343 C   0  0  0  0  0  0  0  0  0  0  0  0
  -10.5468  -26.3092   31.4437 C   0  0  0  0  0  0  0  0  0  0  0  0
   -9.3107  -25.8009   31.2365 C   0  0  0  0  0  0  0  0  0  0  0  0
   -8.5239  -25.5132   32.3459 C   0  0  0  0  0  0  0  0  0  0  0  0
   -8.8934  -25.6057   33.6357 N   0  0  0  0  0  0  0  0  0  0  0  0
  -10.1312  -26.0222   33.7934 C   0  0  0  0  0  0  0  0  0  0  0  0
  -11.5003  -23.4026   32.2358 C   0  0  0  0  0  0  0  0  0  0  0  0
  -10.5419  -23.4762   31.5548 O   0  0  0  0  0  0  0  0  0  0  0  0
  -12.6497  -22.7162   32.0701 N   0  0  0  0  0  0  0  0  0  0  0  0
  -13.0317  -21.7941   31.0924 C   0  0  0  0  0  0  0  0  0  0  0  0
  -14.5133  -21.5005   31.3685 C   0  0  0  0  0  0  0  0  0  0  0  0
  -14.9994  -22.8656   31.5005 C   0  0  0  0  0  0  0  0  0  0  0  0
  -13.6466  -23.5529   31.3634 C   0  0  0  0  0  0  0  0  0  0  0  0
  -12.9270  -24.2670   30.1754 C   0  0  0  0  0  0  0  0  0  0  0  0
  -12.1823  -23.3398   29.3582 N   0  0  0  0  0  0  0  0  0  0  0  0
  -11.8115  -23.8539   28.1629 C   0  0  0  0  0  0  0  0  0  0  0  0
  -12.0616  -23.1506   27.0617 N   0  0  0  0  0  0  0  0  0  0  0  0
  -11.9987  -23.8158   25.9006 C   0  0  0  0  0  0  0  0  0  0  0  0
  -11.6343  -25.1346   25.8092 C   0  0  0  0  0  0  0  0  0  0  0  0
  -11.3250  -25.7558   26.9800 C   0  0  0  0  0  0  0  0  0  0  0  0
  -11.4114  -25.1425   28.1530 N   0  0  0  0  0  0  0  0  0  0  0  0
  -12.2664  -21.9589   29.7129 C   0  0  0  0  0  0  0  0  0  0  0  0
  -11.9217  -23.6372   35.2738 H   0  0  0  0  0  0  0  0  0  0  0  0
  -13.5024  -23.8981   34.3742 H   0  0  0  0  0  0  0  0  0  0  0  0
  -12.4858  -22.4045   34.2033 H   0  0  0  0  0  0  0  0  0  0  0  0
  -10.6535  -24.0472   33.7519 H   0  0  0  0  0  0  0  0  0  0  0  0
  -11.1833  -26.4907   30.5935 H   0  0  0  0  0  0  0  0  0  0  0  0
   -9.0538  -25.5070   30.2289 H   0  0  0  0  0  0  0  0  0  0  0  0
   -7.5073  -25.1961   32.2550 H   0  0  0  0  0  0  0  0  0  0  0  0
  -10.5791  -25.9100   34.7683 H   0  0  0  0  0  0  0  0  0  0  0  0
  -12.4375  -20.9995   31.5416 H   0  0  0  0  0  0  0  0  0  0  0  0
  -14.6397  -20.9925   32.3350 H   0  0  0  0  0  0  0  0  0  0  0  0
  -15.0927  -20.9381   30.6530 H   0  0  0  0  0  0  0  0  0  0  0  0
  -15.8203  -23.0587   30.8163 H   0  0  0  0  0  0  0  0  0  0  0  0
  -15.4094  -23.0162   32.5093 H   0  0  0  0  0  0  0  0  0  0  0  0
  -13.8128  -24.3736   32.0533 H   0  0  0  0  0  0  0  0  0  0  0  0
  -13.4941  -24.9678   29.5797 H   0  0  0  0  0  0  0  0  0  0  0  0
  -12.2180  -24.9427   30.5996 H   0  0  0  0  0  0  0  0  0  0  0  0
  -12.2570  -23.2293   25.0230 H   0  0  0  0  0  0  0  0  0  0  0  0
  -11.5599  -25.6704   24.8858 H   0  0  0  0  0  0  0  0  0  0  0  0
  -11.0072  -26.7889   27.0089 H   0  0  0  0  0  0  0  0  0  0  0  0
  -12.6284  -21.3137   28.9252 H   0  0  0  0  0  0  0  0  0  0  0  0
  -11.2434  -21.5968   29.8609 H   0  0  0  0  0  0  0  0  0  0  0  0
  1  2  1  0
  2  3  1  0
  3  4  1  0
  4  5  2  0
  5  6  1  0
  6  7  2  0
  7  8  1  0
  8  9  2  0
  2 10  1  0
 10 11  2  0
 10 12  1  0
 12 13  1  0
 13 14  1  0
 14 15  1  0
 15 16  1  0
 16 17  1  0
 17 18  1  0
 18 19  1  0
 19 20  2  0
 20 21  1  0
 21 22  2  0
 22 23  1  0
 23 24  2  0
 18 25  1  0
  9  4  1  0
 16 12  1  0
 24 19  1  0
 25 13  1  0
  1 26  1  0
  1 27  1  0
  1 28  1  0
  2 29  1  0
  5 30  1  0
  6 31  1  0
  7 32  1  0
  9 33  1  0
 13 34  1  0
 14 35  1  0
 14 36  1  0
 15 37  1  0
 15 38  1  0
 16 39  1  0
 17 40  1  0
 17 41  1  0
 21 42  1  0
 22 43  1  0
 23 44  1  0
 25 45  1  0
 25 46  1  0
M  END
>  <Energy>  (25) 
258.83442850767386

>  <compound_id>  (25) 
34604

>  <target_id>  (25) 
1

>  <reference_id>  (25) 
82

>  <inspiration_ids>  (25) 
[82, 54]

>  <energy_score>  (25) 
157.6588113174946

>  <distance_score>  (25) 
3.04207447237882

>  <path>  (25) 
/opt/xchem-fragalysis-2/maxwin/BulkDock/SCRATCH/511015/C34604-P82/C34604-P82.minimised.mol

>  <scratch_subdir>  (25) 
/opt/xchem-fragalysis-2/maxwin/BulkDock/SCRATCH/511015/C34604-P82

>  <fragmenstein_runtime>  (25) 
11.054197788238525

>  <fragmenstein_outcome>  (25) 
too moved

>  <fragmenstein_mode>  (25) 
expansion

>  <fragmenstein_error>  (25) 


$$$$
C34604-P54
     RDKit          3D

 46 49  0  0  0  0  0  0  0  0999 V2000
  -13.5809  -27.8996   28.4170 C   0  0  0  0  0  0  0  0  0  0  0  0
  -12.0599  -28.0368   28.5916 C   0  0  0  0  0  0  0  0  0  0  0  0
  -11.5337  -28.0421   29.9220 O   0  0  0  0  0  0  0  0  0  0  0  0
  -12.3285  -28.3309   30.9750 C   0  0  0  0  0  0  0  0  0  0  0  0
  -13.1683  -29.4265   31.0531 C   0  0  0  0  0  0  0  0  0  0  0  0
  -13.9167  -29.6259   32.2080 C   0  0  0  0  0  0  0  0  0  0  0  0
  -13.7653  -28.7355   33.2566 C   0  0  0  0  0  0  0  0  0  0  0  0
  -12.9225  -27.6855   33.2285 N   0  0  0  0  0  0  0  0  0  0  0  0
  -12.2150  -27.5206   32.0921 C   0  0  0  0  0  0  0  0  0  0  0  0
  -11.4119  -26.8584   27.8013 C   0  0  0  0  0  0  0  0  0  0  0  0
  -11.5533  -26.8227   26.6045 O   0  0  0  0  0  0  0  0  0  0  0  0
  -10.7984  -25.9165   28.6969 N   0  0  0  0  0  0  0  0  0  0  0  0
  -10.0351  -24.6341   28.4158 C   0  0  0  0  0  0  0  0  0  0  0  0
   -9.8664  -23.7931   29.6613 C   0  0  0  0  0  0  0  0  0  0  0  0
  -11.2229  -23.9662   30.2377 C   0  0  0  0  0  0  0  0  0  0  0  0
  -11.8369  -24.9189   29.2139 C   0  0  0  0  0  0  0  0  0  0  0  0
  -12.7096  -24.2299   28.1451 C   0  0  0  0  0  0  0  0  0  0  0  0
  -11.8669  -23.3848   27.3322 N   0  0  0  0  0  0  0  0  0  0  0  0
  -12.4384  -22.9766   26.1323 C   0  0  0  0  0  0  0  0  0  0  0  0
  -11.6388  -22.4312   25.2042 N   0  0  0  0  0  0  0  0  0  0  0  0
  -12.2140  -21.8875   24.1146 C   0  0  0  0  0  0  0  0  0  0  0  0
  -13.5632  -21.8901   23.9014 C   0  0  0  0  0  0  0  0  0  0  0  0
  -14.2971  -22.5059   24.8827 C   0  0  0  0  0  0  0  0  0  0  0  0
  -13.7636  -23.1037   25.9627 N   0  0  0  0  0  0  0  0  0  0  0  0
  -10.4998  -23.8453   27.1675 C   0  0  0  0  0  0  0  0  0  0  0  0
  -14.0030  -27.1335   29.0746 H   0  0  0  0  0  0  0  0  0  0  0  0
  -14.0941  -28.8396   28.6360 H   0  0  0  0  0  0  0  0  0  0  0  0
  -13.8481  -27.6402   27.3867 H   0  0  0  0  0  0  0  0  0  0  0  0
  -11.7158  -28.9588   28.1075 H   0  0  0  0  0  0  0  0  0  0  0  0
  -13.2243  -30.1519   30.2485 H   0  0  0  0  0  0  0  0  0  0  0  0
  -14.5830  -30.4767   32.2979 H   0  0  0  0  0  0  0  0  0  0  0  0
  -14.3272  -28.8595   34.1777 H   0  0  0  0  0  0  0  0  0  0  0  0
  -11.5235  -26.6857   32.0944 H   0  0  0  0  0  0  0  0  0  0  0  0
   -9.0349  -24.9925   28.1407 H   0  0  0  0  0  0  0  0  0  0  0  0
   -9.1050  -24.2075   30.3299 H   0  0  0  0  0  0  0  0  0  0  0  0
   -9.6131  -22.7513   29.4514 H   0  0  0  0  0  0  0  0  0  0  0  0
  -11.1496  -24.4337   31.2227 H   0  0  0  0  0  0  0  0  0  0  0  0
  -11.7691  -23.0240   30.3387 H   0  0  0  0  0  0  0  0  0  0  0  0
  -12.5506  -25.5305   29.7782 H   0  0  0  0  0  0  0  0  0  0  0  0
  -13.4783  -23.6399   28.6522 H   0  0  0  0  0  0  0  0  0  0  0  0
  -13.2254  -24.9917   27.5480 H   0  0  0  0  0  0  0  0  0  0  0  0
  -11.5316  -21.4266   23.4064 H   0  0  0  0  0  0  0  0  0  0  0  0
  -14.0119  -21.3973   23.0527 H   0  0  0  0  0  0  0  0  0  0  0  0
  -15.3825  -22.5049   24.8494 H   0  0  0  0  0  0  0  0  0  0  0  0
  -10.4121  -24.5030   26.2932 H   0  0  0  0  0  0  0  0  0  0  0  0
   -9.8347  -22.9871   27.0236 H   0  0  0  0  0  0  0  0  0  0  0  0
  1  2  1  0
  2  3  1  0
  3  4  1  0
  4  5  2  0
  5  6  1  0
  6  7  2  0
  7  8  1  0
  8  9  2  0
  2 10  1  0
 10 11  2  0
 10 12  1  0
 12 13  1  0
 13 14  1  0
 14 15  1  0
 15 16  1  0
 16 17  1  0
 17 18  1  0
 18 19  1  0
 19 20  2  0
 20 21  1  0
 21 22  2  0
 22 23  1  0
 23 24  2  0
 18 25  1  0
  9  4  1  0
 16 12  1  0
 24 19  1  0
 25 13  1  0
  1 26  1  0
  1 27  1  0
  1 28  1  0
  2 29  1  0
  5 30  1  0
  6 31  1  0
  7 32  1  0
  9 33  1  0
 13 34  1  0
 14 35  1  0
 14 36  1  0
 15 37  1  0
 15 38  1  0
 16 39  1  0
 17 40  1  0
 17 41  1  0
 21 42  1  0
 22 43  1  0
 23 44  1  0
 25 45  1  0
 25 46  1  0
M  END
>  <Energy>  (26) 
115.02865575515523

>  <compound_id>  (26) 
34604

>  <target_id>  (26) 
1

>  <reference_id>  (26) 
54

>  <inspiration_ids>  (26) 
[82, 54]

>  <energy_score>  (26) 
13.853038564980324

>  <distance_score>  (26) 
5.221799682012318

>  <path>  (26) 
/opt/xchem-fragalysis-2/maxwin/BulkDock/SCRATCH/511015/C34604-P54/C34604-P54.minimised.mol

>  <scratch_subdir>  (26) 
/opt/xchem-fragalysis-2/maxwin/BulkDock/SCRATCH/511015/C34604-P54

>  <fragmenstein_runtime>  (26) 
10.655186891555786

>  <fragmenstein_outcome>  (26) 
too moved

>  <fragmenstein_mode>  (26) 
expansion

>  <fragmenstein_error>  (26) 


$$$$
C34605-P82
     RDKit          3D

 46 49  0  0  0  0  0  0  0  0999 V2000
  -11.8791  -25.1101   34.2817 C   0  0  0  0  0  0  0  0  0  0  0  0
  -13.4173  -24.6049   34.0644 C   0  0  0  0  0  0  0  0  0  0  0  0
  -14.5780  -25.0267   34.7179 O   0  0  0  0  0  0  0  0  0  0  0  0
  -15.6877  -24.3492   34.2594 C   0  0  0  0  0  0  0  0  0  0  0  0
  -16.7943  -25.1056   33.9261 C   0  0  0  0  0  0  0  0  0  0  0  0
  -17.8732  -24.4536   33.3454 C   0  0  0  0  0  0  0  0  0  0  0  0
  -17.8163  -23.0784   33.1563 C   0  0  0  0  0  0  0  0  0  0  0  0
  -16.6922  -22.4037   33.5965 C   0  0  0  0  0  0  0  0  0  0  0  0
  -15.6383  -23.0050   34.1732 N   0  0  0  0  0  0  0  0  0  0  0  0
  -13.0751  -23.3403   33.4000 C   0  0  0  0  0  0  0  0  0  0  0  0
  -12.4044  -22.5076   33.9419 O   0  0  0  0  0  0  0  0  0  0  0  0
  -13.5718  -23.4035   32.0985 N   0  0  0  0  0  0  0  0  0  0  0  0
  -12.5972  -24.1318   31.1968 C   0  0  0  0  0  0  0  0  0  0  0  0
  -11.1515  -23.8026   30.9901 C   0  0  0  0  0  0  0  0  0  0  0  0
  -10.6840  -22.9374   32.1334 C   0  0  0  0  0  0  0  0  0  0  0  0
  -11.2713  -21.5458   31.7294 C   0  0  0  0  0  0  0  0  0  0  0  0
  -12.1165  -21.8724   30.4458 C   0  0  0  0  0  0  0  0  0  0  0  0
  -13.5228  -22.4219   31.0114 C   0  0  0  0  0  0  0  0  0  0  0  0
  -11.2806  -22.9113   29.8649 N   0  0  0  0  0  0  0  0  0  0  0  0
  -11.4744  -23.5148   28.6496 C   0  0  0  0  0  0  0  0  0  0  0  0
  -10.9609  -24.7521   28.5012 N   0  0  0  0  0  0  0  0  0  0  0  0
  -11.1538  -25.3913   27.3438 C   0  0  0  0  0  0  0  0  0  0  0  0
  -11.8243  -24.8386   26.2966 C   0  0  0  0  0  0  0  0  0  0  0  0
  -12.2790  -23.5668   26.5160 C   0  0  0  0  0  0  0  0  0  0  0  0
  -12.1304  -22.8906   27.6753 N   0  0  0  0  0  0  0  0  0  0  0  0
  -11.3511  -25.2946   33.3421 H   0  0  0  0  0  0  0  0  0  0  0  0
  -11.3554  -24.3284   34.8133 H   0  0  0  0  0  0  0  0  0  0  0  0
  -11.6400  -25.9870   34.8730 H   0  0  0  0  0  0  0  0  0  0  0  0
  -13.4733  -25.2398   33.2301 H   0  0  0  0  0  0  0  0  0  0  0  0
  -16.7930  -26.1807   34.0532 H   0  0  0  0  0  0  0  0  0  0  0  0
  -18.7410  -25.0195   33.0220 H   0  0  0  0  0  0  0  0  0  0  0  0
  -18.6382  -22.5460   32.6932 H   0  0  0  0  0  0  0  0  0  0  0  0
  -16.6111  -21.3268   33.4980 H   0  0  0  0  0  0  0  0  0  0  0  0
  -13.1083  -24.4631   30.2820 H   0  0  0  0  0  0  0  0  0  0  0  0
  -12.4928  -25.1194   31.6474 H   0  0  0  0  0  0  0  0  0  0  0  0
  -10.5010  -24.6719   30.8421 H   0  0  0  0  0  0  0  0  0  0  0  0
  -10.8955  -23.3568   33.0820 H   0  0  0  0  0  0  0  0  0  0  0  0
   -9.6094  -22.9768   32.3248 H   0  0  0  0  0  0  0  0  0  0  0  0
  -11.8363  -21.0269   32.5021 H   0  0  0  0  0  0  0  0  0  0  0  0
  -10.4707  -20.8550   31.4974 H   0  0  0  0  0  0  0  0  0  0  0  0
  -12.2026  -21.0610   29.7311 H   0  0  0  0  0  0  0  0  0  0  0  0
  -14.4101  -22.4410   30.4264 H   0  0  0  0  0  0  0  0  0  0  0  0
  -13.8465  -21.5520   31.6060 H   0  0  0  0  0  0  0  0  0  0  0  0
  -10.7276  -26.3853   27.2871 H   0  0  0  0  0  0  0  0  0  0  0  0
  -11.9655  -25.3547   25.3633 H   0  0  0  0  0  0  0  0  0  0  0  0
  -12.7879  -23.0354   25.7196 H   0  0  0  0  0  0  0  0  0  0  0  0
  1  2  1  0
  2  3  1  0
  3  4  1  0
  4  5  2  0
  5  6  1  0
  6  7  2  0
  7  8  1  0
  8  9  2  0
  2 10  1  0
 10 11  2  0
 10 12  1  0
 12 13  1  0
 13 14  1  0
 14 15  1  0
 15 16  1  0
 16 17  1  0
 17 18  1  0
 17 19  1  0
 19 20  1  0
 20 21  2  0
 21 22  1  0
 22 23  2  0
 23 24  1  0
 24 25  2  0
  9  4  1  0
 18 12  1  0
 25 20  1  0
 19 14  1  0
  1 26  1  0
  1 27  1  0
  1 28  1  0
  2 29  1  0
  5 30  1  0
  6 31  1  0
  7 32  1  0
  8 33  1  0
 13 34  1  0
 13 35  1  0
 14 36  1  0
 15 37  1  0
 15 38  1  0
 16 39  1  0
 16 40  1  0
 17 41  1  0
 18 42  1  0
 18 43  1  0
 22 44  1  0
 23 45  1  0
 24 46  1  0
M  END
>  <Energy>  (27) 
194.67271534135571

>  <compound_id>  (27) 
34605

>  <target_id>  (27) 
1

>  <reference_id>  (27) 
82

>  <inspiration_ids>  (27) 
[82, 54]

>  <energy_score>  (27) 
125.9161882984115

>  <distance_score>  (27) 
4.502231550735125

>  <path>  (27) 
/opt/xchem-fragalysis-2/maxwin/BulkDock/SCRATCH/511015/C34605-P82/C34605-P82.minimised.mol

>  <scratch_subdir>  (27) 
/opt/xchem-fragalysis-2/maxwin/BulkDock/SCRATCH/511015/C34605-P82

>  <fragmenstein_runtime>  (27) 
8.24350380897522

>  <fragmenstein_outcome>  (27) 
too moved

>  <fragmenstein_mode>  (27) 
expansion

>  <fragmenstein_error>  (27) 


$$$$
C34605-P54
     RDKit          3D

 46 49  0  0  0  0  0  0  0  0999 V2000
  -11.4269  -28.2629   29.8398 C   0  0  0  0  0  0  0  0  0  0  0  0
  -12.2666  -27.0678   29.4424 C   0  0  0  0  0  0  0  0  0  0  0  0
  -11.8688  -26.5824   28.1717 O   0  0  0  0  0  0  0  0  0  0  0  0
  -13.0134  -26.3138   27.4738 C   0  0  0  0  0  0  0  0  0  0  0  0
  -13.6969  -25.1208   27.6628 C   0  0  0  0  0  0  0  0  0  0  0  0
  -14.9050  -24.9558   27.0045 C   0  0  0  0  0  0  0  0  0  0  0  0
  -15.3733  -25.9780   26.1895 C   0  0  0  0  0  0  0  0  0  0  0  0
  -14.6039  -27.1230   26.0539 C   0  0  0  0  0  0  0  0  0  0  0  0
  -13.4281  -27.3141   26.6788 N   0  0  0  0  0  0  0  0  0  0  0  0
  -12.3791  -25.9678   30.5268 C   0  0  0  0  0  0  0  0  0  0  0  0
  -13.1728  -26.1996   31.4097 O   0  0  0  0  0  0  0  0  0  0  0  0
  -11.5875  -24.7892   30.2644 N   0  0  0  0  0  0  0  0  0  0  0  0
  -10.2763  -24.8989   30.9438 C   0  0  0  0  0  0  0  0  0  0  0  0
   -9.0589  -23.9616   30.7355 C   0  0  0  0  0  0  0  0  0  0  0  0
   -8.7218  -23.3565   32.1248 C   0  0  0  0  0  0  0  0  0  0  0  0
   -9.7766  -22.2656   32.2866 C   0  0  0  0  0  0  0  0  0  0  0  0
  -10.4909  -22.2908   30.9161 C   0  0  0  0  0  0  0  0  0  0  0  0
  -11.5794  -23.4044   30.9517 C   0  0  0  0  0  0  0  0  0  0  0  0
   -9.4572  -22.7729   30.0305 N   0  0  0  0  0  0  0  0  0  0  0  0
   -9.9190  -22.9072   28.7377 C   0  0  0  0  0  0  0  0  0  0  0  0
  -10.6396  -21.8825   28.2817 N   0  0  0  0  0  0  0  0  0  0  0  0
  -11.2575  -22.0577   27.1201 C   0  0  0  0  0  0  0  0  0  0  0  0
  -11.2234  -23.2110   26.4004 C   0  0  0  0  0  0  0  0  0  0  0  0
  -10.4400  -24.1972   26.9271 C   0  0  0  0  0  0  0  0  0  0  0  0
   -9.7510  -24.0575   28.0722 N   0  0  0  0  0  0  0  0  0  0  0  0
  -10.4187  -28.2032   29.4369 H   0  0  0  0  0  0  0  0  0  0  0  0
  -11.8523  -29.1735   29.4004 H   0  0  0  0  0  0  0  0  0  0  0  0
  -11.3999  -28.4008   30.9229 H   0  0  0  0  0  0  0  0  0  0  0  0
  -13.2932  -27.4751   29.3927 H   0  0  0  0  0  0  0  0  0  0  0  0
  -13.3112  -24.3464   28.3125 H   0  0  0  0  0  0  0  0  0  0  0  0
  -15.4898  -24.0510   27.1313 H   0  0  0  0  0  0  0  0  0  0  0  0
  -16.3235  -25.8900   25.6731 H   0  0  0  0  0  0  0  0  0  0  0  0
  -14.9314  -27.9433   25.4211 H   0  0  0  0  0  0  0  0  0  0  0  0
   -9.9664  -25.8257   30.5023 H   0  0  0  0  0  0  0  0  0  0  0  0
  -10.3963  -25.2095   31.9933 H   0  0  0  0  0  0  0  0  0  0  0  0
   -8.2409  -24.4710   30.2367 H   0  0  0  0  0  0  0  0  0  0  0  0
   -7.7488  -22.8615   32.1355 H   0  0  0  0  0  0  0  0  0  0  0  0
   -8.7321  -24.0877   32.9391 H   0  0  0  0  0  0  0  0  0  0  0  0
  -10.4432  -22.4493   33.1346 H   0  0  0  0  0  0  0  0  0  0  0  0
   -9.2911  -21.3036   32.4740 H   0  0  0  0  0  0  0  0  0  0  0  0
  -10.9065  -21.3003   30.6955 H   0  0  0  0  0  0  0  0  0  0  0  0
  -12.4154  -22.9228   30.4274 H   0  0  0  0  0  0  0  0  0  0  0  0
  -11.8610  -23.5136   31.9744 H   0  0  0  0  0  0  0  0  0  0  0  0
  -11.7544  -21.1854   26.7468 H   0  0  0  0  0  0  0  0  0  0  0  0
  -11.7670  -23.2845   25.4790 H   0  0  0  0  0  0  0  0  0  0  0  0
  -10.3308  -25.1576   26.4332 H   0  0  0  0  0  0  0  0  0  0  0  0
  1  2  1  0
  2  3  1  0
  3  4  1  0
  4  5  2  0
  5  6  1  0
  6  7  2  0
  7  8  1  0
  8  9  2  0
  2 10  1  0
 10 11  2  0
 10 12  1  0
 12 13  1  0
 13 14  1  0
 14 15  1  0
 15 16  1  0
 16 17  1  0
 17 18  1  0
 17 19  1  0
 19 20  1  0
 20 21  2  0
 21 22  1  0
 22 23  2  0
 23 24  1  0
 24 25  2  0
  9  4  1  0
 18 12  1  0
 25 20  1  0
 19 14  1  0
  1 26  1  0
  1 27  1  0
  1 28  1  0
  2 29  1  0
  5 30  1  0
  6 31  1  0
  7 32  1  0
  8 33  1  0
 13 34  1  0
 13 35  1  0
 14 36  1  0
 15 37  1  0
 15 38  1  0
 16 39  1  0
 16 40  1  0
 17 41  1  0
 18 42  1  0
 18 43  1  0
 22 44  1  0
 23 45  1  0
 24 46  1  0
M  END
>  <Energy>  (28) 
120.4001593477937

>  <compound_id>  (28) 
34605

>  <target_id>  (28) 
1

>  <reference_id>  (28) 
54

>  <inspiration_ids>  (28) 
[82, 54]

>  <energy_score>  (28) 
51.6436323048469

>  <distance_score>  (28) 
4.012614821228051

>  <path>  (28) 
/opt/xchem-fragalysis-2/maxwin/BulkDock/SCRATCH/511015/C34605-P54/C34605-P54.minimised.mol

>  <scratch_subdir>  (28) 
/opt/xchem-fragalysis-2/maxwin/BulkDock/SCRATCH/511015/C34605-P54

>  <fragmenstein_runtime>  (28) 
8.478474855422974

>  <fragmenstein_outcome>  (28) 
too moved

>  <fragmenstein_mode>  (28) 
expansion

>  <fragmenstein_error>  (28) 


$$$$
C34607-P82
     RDKit          3D

 46 49  0  0  0  0  0  0  0  0999 V2000
  -13.6901  -21.2566   32.7649 O   0  0  0  0  0  0  0  0  0  0  0  0
  -13.8621  -22.1443   31.9582 C   0  0  0  0  0  0  0  0  0  0  0  0
  -14.8743  -23.1608   32.3481 C   0  0  0  0  0  0  0  0  0  0  0  0
  -14.0732  -24.3225   32.5256 O   0  0  0  0  0  0  0  0  0  0  0  0
  -13.2700  -24.4671   33.6789 C   0  0  0  0  0  0  0  0  0  0  0  0
  -11.9350  -25.0984   33.3476 C   0  0  0  0  0  0  0  0  0  0  0  0
  -11.5525  -25.6474   32.1467 C   0  0  0  0  0  0  0  0  0  0  0  0
  -10.2378  -25.9261   31.7778 C   0  0  0  0  0  0  0  0  0  0  0  0
   -9.2903  -25.6670   32.7040 C   0  0  0  0  0  0  0  0  0  0  0  0
   -9.6344  -25.4772   33.9758 N   0  0  0  0  0  0  0  0  0  0  0  0
  -10.9350  -25.1987   34.2455 C   0  0  0  0  0  0  0  0  0  0  0  0
  -13.1643  -22.4395   30.7035 N   0  0  0  0  0  0  0  0  0  0  0  0
  -12.0014  -23.3796   30.9496 C   0  0  0  0  0  0  0  0  0  0  0  0
  -11.2009  -22.6235   31.9959 C   0  0  0  0  0  0  0  0  0  0  0  0
  -11.2409  -21.3213   31.2299 C   0  0  0  0  0  0  0  0  0  0  0  0
  -12.1117  -21.6881   29.9869 C   0  0  0  0  0  0  0  0  0  0  0  0
  -11.5519  -22.2628   28.6138 C   0  0  0  0  0  0  0  0  0  0  0  0
  -11.5065  -23.7136   28.5224 N   0  0  0  0  0  0  0  0  0  0  0  0
  -12.0291  -24.3461   27.4051 C   0  0  0  0  0  0  0  0  0  0  0  0
  -12.5491  -23.6116   26.4256 N   0  0  0  0  0  0  0  0  0  0  0  0
  -13.2964  -24.2331   25.5051 C   0  0  0  0  0  0  0  0  0  0  0  0
  -13.4960  -25.5896   25.4887 C   0  0  0  0  0  0  0  0  0  0  0  0
  -12.8198  -26.2879   26.4497 C   0  0  0  0  0  0  0  0  0  0  0  0
  -12.0920  -25.6955   27.4063 N   0  0  0  0  0  0  0  0  0  0  0  0
  -12.0103  -24.3765   29.7194 C   0  0  0  0  0  0  0  0  0  0  0  0
  -15.3795  -22.8997   33.2835 H   0  0  0  0  0  0  0  0  0  0  0  0
  -15.6176  -23.2289   31.5568 H   0  0  0  0  0  0  0  0  0  0  0  0
  -13.8511  -25.0873   34.3580 H   0  0  0  0  0  0  0  0  0  0  0  0
  -13.0965  -23.4960   34.1251 H   0  0  0  0  0  0  0  0  0  0  0  0
  -12.3324  -25.7916   31.4207 H   0  0  0  0  0  0  0  0  0  0  0  0
   -9.9618  -26.3235   30.8101 H   0  0  0  0  0  0  0  0  0  0  0  0
   -8.2353  -25.7810   32.4991 H   0  0  0  0  0  0  0  0  0  0  0  0
  -11.0951  -24.9271   35.2682 H   0  0  0  0  0  0  0  0  0  0  0  0
  -10.9943  -23.3156   30.5022 H   0  0  0  0  0  0  0  0  0  0  0  0
  -11.6841  -22.4918   32.9627 H   0  0  0  0  0  0  0  0  0  0  0  0
  -10.2339  -23.0485   32.2747 H   0  0  0  0  0  0  0  0  0  0  0  0
  -11.6740  -20.6401   31.9529 H   0  0  0  0  0  0  0  0  0  0  0  0
  -10.3367  -20.8429   30.9600 H   0  0  0  0  0  0  0  0  0  0  0  0
  -12.4904  -20.7889   29.5469 H   0  0  0  0  0  0  0  0  0  0  0  0
  -10.5499  -21.8720   28.4545 H   0  0  0  0  0  0  0  0  0  0  0  0
  -12.1576  -21.8438   27.8142 H   0  0  0  0  0  0  0  0  0  0  0  0
  -13.7514  -23.5766   24.7675 H   0  0  0  0  0  0  0  0  0  0  0  0
  -14.1159  -26.0692   24.7456 H   0  0  0  0  0  0  0  0  0  0  0  0
  -12.8594  -27.3709   26.4987 H   0  0  0  0  0  0  0  0  0  0  0  0
  -13.0170  -24.7742   29.6018 H   0  0  0  0  0  0  0  0  0  0  0  0
  -11.3666  -25.2446   29.8069 H   0  0  0  0  0  0  0  0  0  0  0  0
  1  2  2  0
  2  3  1  0
  3  4  1  0
  4  5  1  0
  5  6  1  0
  6  7  2  0
  7  8  1  0
  8  9  2  0
  9 10  1  0
 10 11  2  0
  2 12  1  0
 12 13  1  0
 13 14  1  0
 14 15  1  0
 15 16  1  0
 16 17  1  0
 17 18  1  0
 18 19  1  0
 19 20  2  0
 20 21  1  0
 21 22  2  0
 22 23  1  0
 23 24  2  0
 18 25  1  0
 11  6  1  0
 16 12  1  0
 24 19  1  0
 25 13  1  0
  3 26  1  0
  3 27  1  0
  5 28  1  0
  5 29  1  0
  7 30  1  0
  8 31  1  0
  9 32  1  0
 11 33  1  0
 13 34  1  0
 14 35  1  0
 14 36  1  0
 15 37  1  0
 15 38  1  0
 16 39  1  0
 17 40  1  0
 17 41  1  0
 21 42  1  0
 22 43  1  0
 23 44  1  0
 25 45  1  0
 25 46  1  0
M  END
>  <Energy>  (29) 
272.08083530942861

>  <compound_id>  (29) 
34607

>  <target_id>  (29) 
1

>  <reference_id>  (29) 
82

>  <inspiration_ids>  (29) 
[82, 54]

>  <energy_score>  (29) 
181.93978032543487

>  <distance_score>  (29) 
3.167869117078096

>  <path>  (29) 
/opt/xchem-fragalysis-2/maxwin/BulkDock/SCRATCH/511015/C34607-P82/C34607-P82.minimised.mol

>  <scratch_subdir>  (29) 
/opt/xchem-fragalysis-2/maxwin/BulkDock/SCRATCH/511015/C34607-P82

>  <fragmenstein_runtime>  (29) 
7.126119375228882

>  <fragmenstein_outcome>  (29) 
too moved

>  <fragmenstein_mode>  (29) 
expansion

>  <fragmenstein_error>  (29) 


$$$$
C34607-P54
     RDKit          3D

 46 49  0  0  0  0  0  0  0  0999 V2000
  -10.9707  -26.0828   31.9712 O   0  0  0  0  0  0  0  0  0  0  0  0
  -11.2080  -25.7983   30.8295 C   0  0  0  0  0  0  0  0  0  0  0  0
  -11.5972  -26.8701   29.7690 C   0  0  0  0  0  0  0  0  0  0  0  0
  -11.6852  -28.2508   30.0716 O   0  0  0  0  0  0  0  0  0  0  0  0
  -12.4802  -28.5918   31.2093 C   0  0  0  0  0  0  0  0  0  0  0  0
  -13.8390  -27.9588   31.2405 C   0  0  0  0  0  0  0  0  0  0  0  0
  -14.3671  -27.4393   32.4195 C   0  0  0  0  0  0  0  0  0  0  0  0
  -15.5897  -26.7795   32.3944 C   0  0  0  0  0  0  0  0  0  0  0  0
  -16.2542  -26.6821   31.1856 C   0  0  0  0  0  0  0  0  0  0  0  0
  -15.8022  -27.2258   30.0370 N   0  0  0  0  0  0  0  0  0  0  0  0
  -14.6220  -27.8751   30.0990 C   0  0  0  0  0  0  0  0  0  0  0  0
  -11.2978  -24.5348   30.1948 N   0  0  0  0  0  0  0  0  0  0  0  0
   -9.9253  -24.1155   29.6289 C   0  0  0  0  0  0  0  0  0  0  0  0
   -9.0131  -23.6293   30.7282 C   0  0  0  0  0  0  0  0  0  0  0  0
   -9.9594  -22.8110   31.5114 C   0  0  0  0  0  0  0  0  0  0  0  0
  -11.2356  -23.1303   30.7645 C   0  0  0  0  0  0  0  0  0  0  0  0
  -11.7281  -22.0904   29.7072 C   0  0  0  0  0  0  0  0  0  0  0  0
  -11.3819  -22.5818   28.3549 N   0  0  0  0  0  0  0  0  0  0  0  0
  -12.2595  -23.5869   27.8605 C   0  0  0  0  0  0  0  0  0  0  0  0
  -11.8214  -24.3986   26.8797 N   0  0  0  0  0  0  0  0  0  0  0  0
  -12.6255  -25.4045   26.4833 C   0  0  0  0  0  0  0  0  0  0  0  0
  -13.8743  -25.6300   26.9896 C   0  0  0  0  0  0  0  0  0  0  0  0
  -14.2457  -24.7739   27.9859 C   0  0  0  0  0  0  0  0  0  0  0  0
  -13.4581  -23.7801   28.4432 N   0  0  0  0  0  0  0  0  0  0  0  0
  -10.0254  -23.1325   28.4053 C   0  0  0  0  0  0  0  0  0  0  0  0
  -10.8883  -26.7944   28.9396 H   0  0  0  0  0  0  0  0  0  0  0  0
  -12.5496  -26.5546   29.3432 H   0  0  0  0  0  0  0  0  0  0  0  0
  -12.6114  -29.6791   31.1983 H   0  0  0  0  0  0  0  0  0  0  0  0
  -11.9178  -28.3485   32.1156 H   0  0  0  0  0  0  0  0  0  0  0  0
  -13.8206  -27.5357   33.3535 H   0  0  0  0  0  0  0  0  0  0  0  0
  -16.0089  -26.3368   33.2914 H   0  0  0  0  0  0  0  0  0  0  0  0
  -17.2032  -26.1583   31.1096 H   0  0  0  0  0  0  0  0  0  0  0  0
  -14.2919  -28.3130   29.1600 H   0  0  0  0  0  0  0  0  0  0  0  0
   -9.4688  -25.0054   29.1995 H   0  0  0  0  0  0  0  0  0  0  0  0
   -8.6765  -24.4668   31.3431 H   0  0  0  0  0  0  0  0  0  0  0  0
   -8.1573  -23.0669   30.3581 H   0  0  0  0  0  0  0  0  0  0  0  0
   -9.9961  -23.1620   32.5495 H   0  0  0  0  0  0  0  0  0  0  0  0
   -9.7329  -21.7466   31.5343 H   0  0  0  0  0  0  0  0  0  0  0  0
  -11.9642  -23.0965   31.5556 H   0  0  0  0  0  0  0  0  0  0  0  0
  -12.8016  -21.9056   29.8135 H   0  0  0  0  0  0  0  0  0  0  0  0
  -11.2443  -21.1200   29.8728 H   0  0  0  0  0  0  0  0  0  0  0  0
  -12.2128  -26.0582   25.7214 H   0  0  0  0  0  0  0  0  0  0  0  0
  -14.5099  -26.4359   26.6534 H   0  0  0  0  0  0  0  0  0  0  0  0
  -15.2107  -24.8732   28.4758 H   0  0  0  0  0  0  0  0  0  0  0  0
   -9.7256  -23.6321   27.4783 H   0  0  0  0  0  0  0  0  0  0  0  0
   -9.3139  -22.3089   28.5091 H   0  0  0  0  0  0  0  0  0  0  0  0
  1  2  2  0
  2  3  1  0
  3  4  1  0
  4  5  1  0
  5  6  1  0
  6  7  2  0
  7  8  1  0
  8  9  2  0
  9 10  1  0
 10 11  2  0
  2 12  1  0
 12 13  1  0
 13 14  1  0
 14 15  1  0
 15 16  1  0
 16 17  1  0
 17 18  1  0
 18 19  1  0
 19 20  2  0
 20 21  1  0
 21 22  2  0
 22 23  1  0
 23 24  2  0
 18 25  1  0
 11  6  1  0
 16 12  1  0
 24 19  1  0
 25 13  1  0
  3 26  1  0
  3 27  1  0
  5 28  1  0
  5 29  1  0
  7 30  1  0
  8 31  1  0
  9 32  1  0
 11 33  1  0
 13 34  1  0
 14 35  1  0
 14 36  1  0
 15 37  1  0
 15 38  1  0
 16 39  1  0
 17 40  1  0
 17 41  1  0
 21 42  1  0
 22 43  1  0
 23 44  1  0
 25 45  1  0
 25 46  1  0
M  END
>  <Energy>  (30) 
112.9248749177477

>  <compound_id>  (30) 
34607

>  <target_id>  (30) 
1

>  <reference_id>  (30) 
54

>  <inspiration_ids>  (30) 
[82, 54]

>  <energy_score>  (30) 
22.783819933755495

>  <distance_score>  (30) 
4.243381806248525

>  <path>  (30) 
/opt/xchem-fragalysis-2/maxwin/BulkDock/SCRATCH/511015/C34607-P54/C34607-P54.minimised.mol

>  <scratch_subdir>  (30) 
/opt/xchem-fragalysis-2/maxwin/BulkDock/SCRATCH/511015/C34607-P54

>  <fragmenstein_runtime>  (30) 
8.993239879608154

>  <fragmenstein_outcome>  (30) 
too moved

>  <fragmenstein_mode>  (30) 
expansion

>  <fragmenstein_error>  (30) 


$$$$
C34608-P82
     RDKit          3D

 39 42  0  0  0  0  0  0  0  0999 V2000
  -10.2115  -24.0892   28.9560 O   0  0  0  0  0  0  0  0  0  0  0  0
  -10.4212  -24.9999   29.7040 C   0  0  0  0  0  0  0  0  0  0  0  0
  -10.5984  -26.2576   28.9292 C   0  0  0  0  0  0  0  0  0  0  0  0
  -11.4079  -27.2879   29.3360 C   0  0  0  0  0  0  0  0  0  0  0  0
  -12.1443  -28.0475   28.3946 C   0  0  0  0  0  0  0  0  0  0  0  0
  -12.0288  -27.7742   27.0471 C   0  0  0  0  0  0  0  0  0  0  0  0
  -11.2030  -26.8305   26.5869 N   0  0  0  0  0  0  0  0  0  0  0  0
  -10.5306  -26.1079   27.5374 C   0  0  0  0  0  0  0  0  0  0  0  0
  -10.6152  -25.0094   31.1265 N   0  0  0  0  0  0  0  0  0  0  0  0
  -10.5069  -23.8668   32.1718 C   0  0  0  0  0  0  0  0  0  0  0  0
  -11.0034  -24.4803   33.4563 C   0  0  0  0  0  0  0  0  0  0  0  0
  -12.0273  -25.3564   32.8959 C   0  0  0  0  0  0  0  0  0  0  0  0
  -12.1108  -24.8656   31.4808 C   0  0  0  0  0  0  0  0  0  0  0  0
  -13.0906  -23.6524   31.5160 C   0  0  0  0  0  0  0  0  0  0  0  0
  -12.4118  -22.5058   31.0201 N   0  0  0  0  0  0  0  0  0  0  0  0
  -12.2212  -22.7151   29.6404 C   0  0  0  0  0  0  0  0  0  0  0  0
  -11.7363  -21.7668   28.8807 N   0  0  0  0  0  0  0  0  0  0  0  0
  -11.6935  -22.0848   27.5561 C   0  0  0  0  0  0  0  0  0  0  0  0
  -12.1482  -23.1902   26.8954 C   0  0  0  0  0  0  0  0  0  0  0  0
  -12.6374  -24.0918   27.7427 C   0  0  0  0  0  0  0  0  0  0  0  0
  -12.6214  -23.8882   29.0769 N   0  0  0  0  0  0  0  0  0  0  0  0
  -11.2571  -22.3994   31.8988 C   0  0  0  0  0  0  0  0  0  0  0  0
  -11.3951  -27.5322   30.3797 H   0  0  0  0  0  0  0  0  0  0  0  0
  -12.7404  -28.9022   28.6984 H   0  0  0  0  0  0  0  0  0  0  0  0
  -12.5585  -28.3537   26.2981 H   0  0  0  0  0  0  0  0  0  0  0  0
  -10.0273  -25.2459   27.1141 H   0  0  0  0  0  0  0  0  0  0  0  0
   -9.4446  -23.6795   32.3270 H   0  0  0  0  0  0  0  0  0  0  0  0
  -11.4450  -23.7785   34.1641 H   0  0  0  0  0  0  0  0  0  0  0  0
  -10.2583  -25.1324   33.9230 H   0  0  0  0  0  0  0  0  0  0  0  0
  -12.9362  -25.3165   33.4933 H   0  0  0  0  0  0  0  0  0  0  0  0
  -11.5377  -26.3285   32.8622 H   0  0  0  0  0  0  0  0  0  0  0  0
  -12.5851  -25.6029   30.8508 H   0  0  0  0  0  0  0  0  0  0  0  0
  -13.4370  -23.4389   32.5396 H   0  0  0  0  0  0  0  0  0  0  0  0
  -14.0319  -23.8302   31.0266 H   0  0  0  0  0  0  0  0  0  0  0  0
  -11.2822  -21.3373   26.9235 H   0  0  0  0  0  0  0  0  0  0  0  0
  -12.1217  -23.3067   25.8258 H   0  0  0  0  0  0  0  0  0  0  0  0
  -13.0664  -25.0257   27.4102 H   0  0  0  0  0  0  0  0  0  0  0  0
  -11.6400  -22.0739   32.8786 H   0  0  0  0  0  0  0  0  0  0  0  0
  -10.6626  -21.5183   31.6546 H   0  0  0  0  0  0  0  0  0  0  0  0
  1  2  2  0
  2  3  1  0
  3  4  2  0
  4  5  1  0
  5  6  2  0
  6  7  1  0
  7  8  2  0
  2  9  1  0
  9 10  1  0
 10 11  1  0
 11 12  1  0
 12 13  1  0
 13 14  1  0
 14 15  1  0
 15 16  1  0
 16 17  2  0
 17 18  1  0
 18 19  2  0
 19 20  1  0
 20 21  2  0
 15 22  1  0
  8  3  1  0
 13  9  1  0
 21 16  1  0
 22 10  1  0
  4 23  1  0
  5 24  1  0
  6 25  1  0
  8 26  1  0
 10 27  1  0
 11 28  1  0
 11 29  1  0
 12 30  1  0
 12 31  1  0
 13 32  1  0
 14 33  1  0
 14 34  1  0
 18 35  1  0
 19 36  1  0
 20 37  1  0
 22 38  1  0
 22 39  1  0
M  END
>  <Energy>  (31) 
177.98326966738867

>  <compound_id>  (31) 
34608

>  <target_id>  (31) 
1

>  <reference_id>  (31) 
82

>  <inspiration_ids>  (31) 
[82, 54]

>  <energy_score>  (31) 
129.13287385114296

>  <distance_score>  (31) 
3.5357950166461043

>  <path>  (31) 
/opt/xchem-fragalysis-2/maxwin/BulkDock/SCRATCH/511015/C34608-P82/C34608-P82.minimised.mol

>  <scratch_subdir>  (31) 
/opt/xchem-fragalysis-2/maxwin/BulkDock/SCRATCH/511015/C34608-P82

>  <fragmenstein_runtime>  (31) 
8.5785973072052

>  <fragmenstein_outcome>  (31) 
too moved

>  <fragmenstein_mode>  (31) 
expansion

>  <fragmenstein_error>  (31) 


$$$$
C34608-P54
     RDKit          3D

 39 42  0  0  0  0  0  0  0  0999 V2000
  -11.3731  -25.8702   28.9818 O   0  0  0  0  0  0  0  0  0  0  0  0
  -11.2543  -25.7177   30.1696 C   0  0  0  0  0  0  0  0  0  0  0  0
  -12.1023  -26.6341   30.9679 C   0  0  0  0  0  0  0  0  0  0  0  0
  -11.8032  -27.0679   32.2536 C   0  0  0  0  0  0  0  0  0  0  0  0
  -12.6115  -28.0215   32.8663 C   0  0  0  0  0  0  0  0  0  0  0  0
  -13.7293  -28.4716   32.1899 C   0  0  0  0  0  0  0  0  0  0  0  0
  -14.0793  -28.0383   30.9647 N   0  0  0  0  0  0  0  0  0  0  0  0
  -13.2443  -27.1543   30.3690 C   0  0  0  0  0  0  0  0  0  0  0  0
  -10.3852  -24.8606   30.9130 N   0  0  0  0  0  0  0  0  0  0  0  0
   -9.2931  -23.9781   30.4673 C   0  0  0  0  0  0  0  0  0  0  0  0
   -8.9102  -23.1491   31.7284 C   0  0  0  0  0  0  0  0  0  0  0  0
  -10.2755  -22.9045   32.3683 C   0  0  0  0  0  0  0  0  0  0  0  0
  -11.0853  -23.4342   31.1913 C   0  0  0  0  0  0  0  0  0  0  0  0
  -11.9625  -23.0121   30.0183 C   0  0  0  0  0  0  0  0  0  0  0  0
  -11.0613  -22.8579   28.8627 N   0  0  0  0  0  0  0  0  0  0  0  0
  -11.6761  -23.1431   27.6535 C   0  0  0  0  0  0  0  0  0  0  0  0
  -11.1462  -22.6057   26.5583 N   0  0  0  0  0  0  0  0  0  0  0  0
  -11.9440  -22.5603   25.4773 C   0  0  0  0  0  0  0  0  0  0  0  0
  -13.1961  -23.1175   25.4102 C   0  0  0  0  0  0  0  0  0  0  0  0
  -13.5839  -23.7994   26.5214 C   0  0  0  0  0  0  0  0  0  0  0  0
  -12.8661  -23.7817   27.6503 N   0  0  0  0  0  0  0  0  0  0  0  0
   -9.6547  -23.3564   29.0095 C   0  0  0  0  0  0  0  0  0  0  0  0
  -10.9331  -26.6950   32.7824 H   0  0  0  0  0  0  0  0  0  0  0  0
  -12.3661  -28.4225   33.8431 H   0  0  0  0  0  0  0  0  0  0  0  0
  -14.3883  -29.2179   32.6246 H   0  0  0  0  0  0  0  0  0  0  0  0
  -13.5347  -26.8681   29.3594 H   0  0  0  0  0  0  0  0  0  0  0  0
   -8.4406  -24.6161   30.2441 H   0  0  0  0  0  0  0  0  0  0  0  0
   -8.3050  -23.7290   32.4328 H   0  0  0  0  0  0  0  0  0  0  0  0
   -8.3841  -22.2363   31.4812 H   0  0  0  0  0  0  0  0  0  0  0  0
  -10.4670  -21.8595   32.6445 H   0  0  0  0  0  0  0  0  0  0  0  0
  -10.3519  -23.5004   33.2774 H   0  0  0  0  0  0  0  0  0  0  0  0
  -10.6092  -22.4947   30.8120 H   0  0  0  0  0  0  0  0  0  0  0  0
  -12.7208  -23.7723   29.8494 H   0  0  0  0  0  0  0  0  0  0  0  0
  -12.4947  -22.0699   30.2129 H   0  0  0  0  0  0  0  0  0  0  0  0
  -11.5436  -22.0383   24.6141 H   0  0  0  0  0  0  0  0  0  0  0  0
  -13.8028  -23.0253   24.5262 H   0  0  0  0  0  0  0  0  0  0  0  0
  -14.5309  -24.3244   26.5764 H   0  0  0  0  0  0  0  0  0  0  0  0
   -8.9611  -22.5528   28.7686 H   0  0  0  0  0  0  0  0  0  0  0  0
   -9.4779  -24.1576   28.2788 H   0  0  0  0  0  0  0  0  0  0  0  0
  1  2  2  0
  2  3  1  0
  3  4  2  0
  4  5  1  0
  5  6  2  0
  6  7  1  0
  7  8  2  0
  2  9  1  0
  9 10  1  0
 10 11  1  0
 11 12  1  0
 12 13  1  0
 13 14  1  0
 14 15  1  0
 15 16  1  0
 16 17  2  0
 17 18  1  0
 18 19  2  0
 19 20  1  0
 20 21  2  0
 15 22  1  0
  8  3  1  0
 13  9  1  0
 21 16  1  0
 22 10  1  0
  4 23  1  0
  5 24  1  0
  6 25  1  0
  8 26  1  0
 10 27  1  0
 11 28  1  0
 11 29  1  0
 12 30  1  0
 12 31  1  0
 13 32  1  0
 14 33  1  0
 14 34  1  0
 18 35  1  0
 19 36  1  0
 20 37  1  0
 22 38  1  0
 22 39  1  0
M  END
>  <Energy>  (32) 
189.83936000984644

>  <compound_id>  (32) 
34608

>  <target_id>  (32) 
1

>  <reference_id>  (32) 
54

>  <inspiration_ids>  (32) 
[82, 54]

>  <energy_score>  (32) 
140.98896419360113

>  <distance_score>  (32) 
3.611643426668208

>  <path>  (32) 
/opt/xchem-fragalysis-2/maxwin/BulkDock/SCRATCH/511015/C34608-P54/C34608-P54.minimised.mol

>  <scratch_subdir>  (32) 
/opt/xchem-fragalysis-2/maxwin/BulkDock/SCRATCH/511015/C34608-P54

>  <fragmenstein_runtime>  (32) 
7.005497932434082

>  <fragmenstein_outcome>  (32) 
too moved

>  <fragmenstein_mode>  (32) 
expansion

>  <fragmenstein_error>  (32) 


$$$$
C34609-P82
     RDKit          3D

 48 51  0  0  0  0  0  0  0  0999 V2000
  -16.3530  -20.7425   31.5601 C   0  0  0  0  0  0  0  0  0  0  0  0
  -16.3184  -20.9923   33.0550 C   0  0  0  0  0  0  0  0  0  0  0  0
  -17.2175  -19.8954   33.6895 C   0  0  0  0  0  0  0  0  0  0  0  0
  -14.8474  -20.8750   33.6494 C   0  0  0  0  0  0  0  0  0  0  0  0
  -14.7862  -20.3373   34.7254 O   0  0  0  0  0  0  0  0  0  0  0  0
  -13.8238  -21.5117   32.8653 N   0  0  0  0  0  0  0  0  0  0  0  0
  -12.2692  -21.6167   33.0966 C   0  0  0  0  0  0  0  0  0  0  0  0
  -11.3667  -22.5212   32.1409 C   0  0  0  0  0  0  0  0  0  0  0  0
  -11.8103  -22.1841   30.7330 C   0  0  0  0  0  0  0  0  0  0  0  0
  -13.1029  -22.9507   30.7061 C   0  0  0  0  0  0  0  0  0  0  0  0
  -13.1359  -23.7770   32.0112 C   0  0  0  0  0  0  0  0  0  0  0  0
  -13.7437  -22.9841   33.1922 C   0  0  0  0  0  0  0  0  0  0  0  0
  -11.7221  -23.9437   32.3039 N   0  0  0  0  0  0  0  0  0  0  0  0
  -11.1565  -24.8409   31.3510 C   0  0  0  0  0  0  0  0  0  0  0  0
  -11.9678  -25.6074   30.6017 N   0  0  0  0  0  0  0  0  0  0  0  0
  -11.5682  -26.0844   29.4098 C   0  0  0  0  0  0  0  0  0  0  0  0
  -10.3351  -25.8818   28.9176 C   0  0  0  0  0  0  0  0  0  0  0  0
   -9.5382  -25.2255   29.7965 C   0  0  0  0  0  0  0  0  0  0  0  0
   -9.8891  -24.7175   31.0033 N   0  0  0  0  0  0  0  0  0  0  0  0
  -16.9019  -22.3550   33.4595 C   0  0  0  0  0  0  0  0  0  0  0  0
  -17.3593  -23.3074   32.5445 C   0  0  0  0  0  0  0  0  0  0  0  0
  -17.6829  -24.5934   32.9746 C   0  0  0  0  0  0  0  0  0  0  0  0
  -17.5462  -24.8993   34.3124 C   0  0  0  0  0  0  0  0  0  0  0  0
  -17.1718  -24.0000   35.2389 N   0  0  0  0  0  0  0  0  0  0  0  0
  -16.8736  -22.7594   34.7977 C   0  0  0  0  0  0  0  0  0  0  0  0
  -15.9071  -19.7739   31.3513 H   0  0  0  0  0  0  0  0  0  0  0  0
  -17.3781  -20.7226   31.1703 H   0  0  0  0  0  0  0  0  0  0  0  0
  -15.8093  -21.4989   30.9959 H   0  0  0  0  0  0  0  0  0  0  0  0
  -18.2470  -19.9601   33.3167 H   0  0  0  0  0  0  0  0  0  0  0  0
  -17.2683  -19.9661   34.7820 H   0  0  0  0  0  0  0  0  0  0  0  0
  -16.8373  -18.8942   33.4555 H   0  0  0  0  0  0  0  0  0  0  0  0
  -12.0591  -21.7855   34.1605 H   0  0  0  0  0  0  0  0  0  0  0  0
  -11.9207  -20.5865   32.9641 H   0  0  0  0  0  0  0  0  0  0  0  0
  -10.3294  -22.3588   32.3620 H   0  0  0  0  0  0  0  0  0  0  0  0
  -11.8937  -21.1311   30.5322 H   0  0  0  0  0  0  0  0  0  0  0  0
  -11.1779  -22.5736   29.9310 H   0  0  0  0  0  0  0  0  0  0  0  0
  -12.9838  -23.6037   29.8470 H   0  0  0  0  0  0  0  0  0  0  0  0
  -13.9608  -22.3001   30.6074 H   0  0  0  0  0  0  0  0  0  0  0  0
  -13.6595  -24.6923   31.9452 H   0  0  0  0  0  0  0  0  0  0  0  0
  -13.3443  -23.2968   34.1527 H   0  0  0  0  0  0  0  0  0  0  0  0
  -14.7639  -23.3466   33.2381 H   0  0  0  0  0  0  0  0  0  0  0  0
  -12.3057  -26.6199   28.8322 H   0  0  0  0  0  0  0  0  0  0  0  0
  -10.0049  -26.2157   27.9505 H   0  0  0  0  0  0  0  0  0  0  0  0
   -8.5271  -25.0015   29.4916 H   0  0  0  0  0  0  0  0  0  0  0  0
  -17.4110  -23.1085   31.4792 H   0  0  0  0  0  0  0  0  0  0  0  0
  -17.9892  -25.3553   32.2665 H   0  0  0  0  0  0  0  0  0  0  0  0
  -17.7535  -25.8968   34.6873 H   0  0  0  0  0  0  0  0  0  0  0  0
  -16.5615  -22.0821   35.5878 H   0  0  0  0  0  0  0  0  0  0  0  0
  1  2  1  0
  2  3  1  0
  2  4  1  0
  4  5  2  0
  4  6  1  0
  6  7  1  0
  7  8  1  0
  8  9  1  0
  9 10  1  0
 10 11  1  0
 11 12  1  0
 11 13  1  0
 13 14  1  0
 14 15  2  0
 15 16  1  0
 16 17  2  0
 17 18  1  0
 18 19  2  0
  2 20  1  0
 20 21  2  0
 21 22  1  0
 22 23  2  0
 23 24  1  0
 24 25  2  0
 12  6  1  0
 19 14  1  0
 25 20  1  0
 13  8  1  0
  1 26  1  0
  1 27  1  0
  1 28  1  0
  3 29  1  0
  3 30  1  0
  3 31  1  0
  7 32  1  0
  7 33  1  0
  8 34  1  0
  9 35  1  0
  9 36  1  0
 10 37  1  0
 10 38  1  0
 11 39  1  0
 12 40  1  0
 12 41  1  0
 16 42  1  0
 17 43  1  0
 18 44  1  0
 21 45  1  0
 22 46  1  0
 23 47  1  0
 25 48  1  0
M  END
>  <Energy>  (33) 
142.48624488312106

>  <compound_id>  (33) 
34609

>  <target_id>  (33) 
1

>  <reference_id>  (33) 
82

>  <inspiration_ids>  (33) 
[82, 54]

>  <energy_score>  (33) 
53.128562600715185

>  <distance_score>  (33) 
4.520591988488731

>  <path>  (33) 
/opt/xchem-fragalysis-2/maxwin/BulkDock/SCRATCH/511015/C34609-P82/C34609-P82.minimised.mol

>  <scratch_subdir>  (33) 
/opt/xchem-fragalysis-2/maxwin/BulkDock/SCRATCH/511015/C34609-P82

>  <fragmenstein_runtime>  (33) 
7.5527732372283936

>  <fragmenstein_outcome>  (33) 
too moved

>  <fragmenstein_mode>  (33) 
expansion

>  <fragmenstein_error>  (33) 


$$$$
C34609-P54
     RDKit          3D

 48 51  0  0  0  0  0  0  0  0999 V2000
  -12.9657  -27.6564   28.3278 C   0  0  0  0  0  0  0  0  0  0  0  0
  -13.0378  -26.4441   29.3070 C   0  0  0  0  0  0  0  0  0  0  0  0
  -13.9466  -25.4208   28.6060 C   0  0  0  0  0  0  0  0  0  0  0  0
  -11.5888  -25.8438   29.4415 C   0  0  0  0  0  0  0  0  0  0  0  0
  -10.8509  -26.0481   28.5116 O   0  0  0  0  0  0  0  0  0  0  0  0
  -11.3378  -25.2162   30.7161 N   0  0  0  0  0  0  0  0  0  0  0  0
  -10.1042  -24.7401   31.3087 C   0  0  0  0  0  0  0  0  0  0  0  0
   -9.0333  -23.7684   30.7472 C   0  0  0  0  0  0  0  0  0  0  0  0
   -8.7202  -22.9811   32.0397 C   0  0  0  0  0  0  0  0  0  0  0  0
  -10.0246  -22.1642   32.1842 C   0  0  0  0  0  0  0  0  0  0  0  0
  -10.7044  -22.3594   30.7923 C   0  0  0  0  0  0  0  0  0  0  0  0
  -11.6227  -23.6585   30.6394 C   0  0  0  0  0  0  0  0  0  0  0  0
   -9.5797  -22.6845   29.9757 N   0  0  0  0  0  0  0  0  0  0  0  0
   -9.9360  -22.7598   28.6612 C   0  0  0  0  0  0  0  0  0  0  0  0
  -10.6806  -21.7463   28.2308 N   0  0  0  0  0  0  0  0  0  0  0  0
  -11.2927  -21.9050   27.0649 C   0  0  0  0  0  0  0  0  0  0  0  0
  -11.2688  -23.0395   26.3213 C   0  0  0  0  0  0  0  0  0  0  0  0
  -10.4297  -23.9918   26.8081 C   0  0  0  0  0  0  0  0  0  0  0  0
   -9.7083  -23.8466   27.9414 N   0  0  0  0  0  0  0  0  0  0  0  0
  -13.5371  -27.0246   30.6317 C   0  0  0  0  0  0  0  0  0  0  0  0
  -12.6867  -27.8119   31.4279 C   0  0  0  0  0  0  0  0  0  0  0  0
  -13.1223  -28.3321   32.6384 C   0  0  0  0  0  0  0  0  0  0  0  0
  -14.4186  -28.0667   33.0221 C   0  0  0  0  0  0  0  0  0  0  0  0
  -15.2788  -27.3373   32.2853 N   0  0  0  0  0  0  0  0  0  0  0  0
  -14.8333  -26.8592   31.1017 C   0  0  0  0  0  0  0  0  0  0  0  0
  -13.9350  -28.1638   28.2473 H   0  0  0  0  0  0  0  0  0  0  0  0
  -12.2288  -28.4010   28.6532 H   0  0  0  0  0  0  0  0  0  0  0  0
  -12.6751  -27.3433   27.3173 H   0  0  0  0  0  0  0  0  0  0  0  0
  -14.1320  -24.5352   29.2037 H   0  0  0  0  0  0  0  0  0  0  0  0
  -14.9216  -25.8507   28.3489 H   0  0  0  0  0  0  0  0  0  0  0  0
  -13.4912  -25.0698   27.6721 H   0  0  0  0  0  0  0  0  0  0  0  0
   -9.5434  -25.6412   31.3571 H   0  0  0  0  0  0  0  0  0  0  0  0
  -10.2780  -24.6320   32.3846 H   0  0  0  0  0  0  0  0  0  0  0  0
   -8.2234  -24.2671   30.2266 H   0  0  0  0  0  0  0  0  0  0  0  0
   -8.5053  -23.5999   32.9182 H   0  0  0  0  0  0  0  0  0  0  0  0
   -7.8774  -22.3187   31.9119 H   0  0  0  0  0  0  0  0  0  0  0  0
   -9.7893  -21.1138   32.3776 H   0  0  0  0  0  0  0  0  0  0  0  0
  -10.6531  -22.5065   33.0110 H   0  0  0  0  0  0  0  0  0  0  0  0
  -11.2679  -21.4506   30.5455 H   0  0  0  0  0  0  0  0  0  0  0  0
  -12.1229  -23.5205   31.5694 H   0  0  0  0  0  0  0  0  0  0  0  0
  -12.3182  -23.4933   29.8110 H   0  0  0  0  0  0  0  0  0  0  0  0
  -11.7448  -21.0113   26.6995 H   0  0  0  0  0  0  0  0  0  0  0  0
  -11.8079  -23.1024   25.3952 H   0  0  0  0  0  0  0  0  0  0  0  0
  -10.2934  -24.9397   26.2969 H   0  0  0  0  0  0  0  0  0  0  0  0
  -11.6741  -28.0374   31.1007 H   0  0  0  0  0  0  0  0  0  0  0  0
  -12.4741  -28.9465   33.2528 H   0  0  0  0  0  0  0  0  0  0  0  0
  -14.8199  -28.4533   33.9540 H   0  0  0  0  0  0  0  0  0  0  0  0
  -15.5862  -26.3064   30.5464 H   0  0  0  0  0  0  0  0  0  0  0  0
  1  2  1  0
  2  3  1  0
  2  4  1  0
  4  5  2  0
  4  6  1  0
  6  7  1  0
  7  8  1  0
  8  9  1  0
  9 10  1  0
 10 11  1  0
 11 12  1  0
 11 13  1  0
 13 14  1  0
 14 15  2  0
 15 16  1  0
 16 17  2  0
 17 18  1  0
 18 19  2  0
  2 20  1  0
 20 21  2  0
 21 22  1  0
 22 23  2  0
 23 24  1  0
 24 25  2  0
 12  6  1  0
 19 14  1  0
 25 20  1  0
 13  8  1  0
  1 26  1  0
  1 27  1  0
  1 28  1  0
  3 29  1  0
  3 30  1  0
  3 31  1  0
  7 32  1  0
  7 33  1  0
  8 34  1  0
  9 35  1  0
  9 36  1  0
 10 37  1  0
 10 38  1  0
 11 39  1  0
 12 40  1  0
 12 41  1  0
 16 42  1  0
 17 43  1  0
 18 44  1  0
 21 45  1  0
 22 46  1  0
 23 47  1  0
 25 48  1  0
M  END
>  <Energy>  (34) 
171.44423919700222

>  <compound_id>  (34) 
34609

>  <target_id>  (34) 
1

>  <reference_id>  (34) 
54

>  <inspiration_ids>  (34) 
[82, 54]

>  <energy_score>  (34) 
82.0865569145974

>  <distance_score>  (34) 
3.4618358105728415

>  <path>  (34) 
/opt/xchem-fragalysis-2/maxwin/BulkDock/SCRATCH/511015/C34609-P54/C34609-P54.minimised.mol

>  <scratch_subdir>  (34) 
/opt/xchem-fragalysis-2/maxwin/BulkDock/SCRATCH/511015/C34609-P54

>  <fragmenstein_runtime>  (34) 
6.318889379501343

>  <fragmenstein_outcome>  (34) 
too moved

>  <fragmenstein_mode>  (34) 
expansion

>  <fragmenstein_error>  (34) 


$$$$
C34610-P82
     RDKit          3D

 48 51  0  0  0  0  0  0  0  0999 V2000
  -12.2297  -24.9778   31.4185 O   0  0  0  0  0  0  0  0  0  0  0  0
  -12.1486  -24.5762   32.5443 C   0  0  0  0  0  0  0  0  0  0  0  0
  -11.0360  -25.2331   33.2900 C   0  0  0  0  0  0  0  0  0  0  0  0
   -9.8490  -25.3616   32.2868 C   0  0  0  0  0  0  0  0  0  0  0  0
  -10.0176  -26.5588   31.3025 C   0  0  0  0  0  0  0  0  0  0  0  0
  -10.4925  -26.4181   29.8807 C   0  0  0  0  0  0  0  0  0  0  0  0
  -11.4928  -27.2364   29.3539 C   0  0  0  0  0  0  0  0  0  0  0  0
  -11.7930  -27.2947   27.9953 C   0  0  0  0  0  0  0  0  0  0  0  0
  -11.0088  -26.5394   27.1614 C   0  0  0  0  0  0  0  0  0  0  0  0
  -10.0526  -25.7102   27.6170 N   0  0  0  0  0  0  0  0  0  0  0  0
   -9.8323  -25.6549   28.9557 C   0  0  0  0  0  0  0  0  0  0  0  0
  -12.8658  -23.5284   33.2141 N   0  0  0  0  0  0  0  0  0  0  0  0
  -12.1542  -22.2518   33.0783 C   0  0  0  0  0  0  0  0  0  0  0  0
  -12.8423  -21.1628   33.9210 C   0  0  0  0  0  0  0  0  0  0  0  0
  -14.3032  -21.6077   33.8048 C   0  0  0  0  0  0  0  0  0  0  0  0
  -14.0846  -22.6283   32.7230 C   0  0  0  0  0  0  0  0  0  0  0  0
  -14.0158  -22.7864   31.2001 C   0  0  0  0  0  0  0  0  0  0  0  0
  -12.7739  -22.1029   30.6805 N   0  0  0  0  0  0  0  0  0  0  0  0
  -12.2436  -22.6569   29.5129 C   0  0  0  0  0  0  0  0  0  0  0  0
  -11.7168  -21.7988   28.6715 N   0  0  0  0  0  0  0  0  0  0  0  0
  -11.6889  -22.1961   27.3876 C   0  0  0  0  0  0  0  0  0  0  0  0
  -12.1119  -23.3758   26.8747 C   0  0  0  0  0  0  0  0  0  0  0  0
  -12.5249  -24.2015   27.8458 C   0  0  0  0  0  0  0  0  0  0  0  0
  -12.4759  -23.9049   29.1484 N   0  0  0  0  0  0  0  0  0  0  0  0
  -11.6972  -21.9753   31.6457 C   0  0  0  0  0  0  0  0  0  0  0  0
  -10.8320  -24.6315   34.1494 H   0  0  0  0  0  0  0  0  0  0  0  0
  -11.1986  -26.2143   33.6668 H   0  0  0  0  0  0  0  0  0  0  0  0
   -8.9451  -25.5249   32.8831 H   0  0  0  0  0  0  0  0  0  0  0  0
   -9.6847  -24.4380   31.7346 H   0  0  0  0  0  0  0  0  0  0  0  0
   -9.0423  -27.0291   31.1989 H   0  0  0  0  0  0  0  0  0  0  0  0
  -10.6185  -27.3267   31.7897 H   0  0  0  0  0  0  0  0  0  0  0  0
  -11.9671  -27.9577   29.9926 H   0  0  0  0  0  0  0  0  0  0  0  0
  -12.5435  -27.9698   27.6076 H   0  0  0  0  0  0  0  0  0  0  0  0
  -11.1375  -26.5644   26.0859 H   0  0  0  0  0  0  0  0  0  0  0  0
   -9.0200  -25.0141   29.2560 H   0  0  0  0  0  0  0  0  0  0  0  0
  -11.2413  -22.4688   33.5994 H   0  0  0  0  0  0  0  0  0  0  0  0
  -12.6298  -20.1710   33.5405 H   0  0  0  0  0  0  0  0  0  0  0  0
  -12.4559  -21.1059   34.9330 H   0  0  0  0  0  0  0  0  0  0  0  0
  -14.7725  -22.1704   34.6020 H   0  0  0  0  0  0  0  0  0  0  0  0
  -14.9989  -20.7849   33.5810 H   0  0  0  0  0  0  0  0  0  0  0  0
  -13.9595  -21.6201   32.2631 H   0  0  0  0  0  0  0  0  0  0  0  0
  -14.9228  -22.3287   30.7793 H   0  0  0  0  0  0  0  0  0  0  0  0
  -14.0228  -23.8416   30.9982 H   0  0  0  0  0  0  0  0  0  0  0  0
  -11.4204  -21.4278   26.6964 H   0  0  0  0  0  0  0  0  0  0  0  0
  -12.1590  -23.5888   25.8218 H   0  0  0  0  0  0  0  0  0  0  0  0
  -13.0105  -25.1363   27.6210 H   0  0  0  0  0  0  0  0  0  0  0  0
  -10.9888  -22.7688   31.4590 H   0  0  0  0  0  0  0  0  0  0  0  0
  -11.1756  -21.0217   31.5728 H   0  0  0  0  0  0  0  0  0  0  0  0
  1  2  2  0
  2  3  1  0
  3  4  1  0
  4  5  1  0
  5  6  1  0
  6  7  2  0
  7  8  1  0
  8  9  2  0
  9 10  1  0
 10 11  2  0
  2 12  1  0
 12 13  1  0
 13 14  1  0
 14 15  1  0
 15 16  1  0
 16 17  1  0
 17 18  1  0
 18 19  1  0
 19 20  2  0
 20 21  1  0
 21 22  2  0
 22 23  1  0
 23 24  2  0
 18 25  1  0
 11  6  1  0
 16 12  1  0
 24 19  1  0
 25 13  1  0
  3 26  1  0
  3 27  1  0
  4 28  1  0
  4 29  1  0
  5 30  1  0
  5 31  1  0
  7 32  1  0
  8 33  1  0
  9 34  1  0
 11 35  1  0
 13 36  1  0
 14 37  1  0
 14 38  1  0
 15 39  1  0
 15 40  1  0
 16 41  1  0
 17 42  1  0
 17 43  1  0
 21 44  1  0
 22 45  1  0
 23 46  1  0
 25 47  1  0
 25 48  1  0
M  END
>  <Energy>  (35) 
234.25111531285964

>  <compound_id>  (35) 
34610

>  <target_id>  (35) 
1

>  <reference_id>  (35) 
82

>  <inspiration_ids>  (35) 
[82, 54]

>  <energy_score>  (35) 
180.63374842457614

>  <distance_score>  (35) 
3.341560367965063

>  <path>  (35) 
/opt/xchem-fragalysis-2/maxwin/BulkDock/SCRATCH/511015/C34610-P82/C34610-P82.minimised.mol

>  <scratch_subdir>  (35) 
/opt/xchem-fragalysis-2/maxwin/BulkDock/SCRATCH/511015/C34610-P82

>  <fragmenstein_runtime>  (35) 
8.665564060211182

>  <fragmenstein_outcome>  (35) 
too moved

>  <fragmenstein_mode>  (35) 
expansion

>  <fragmenstein_error>  (35) 


$$$$
C34610-P54
     RDKit          3D

 48 51  0  0  0  0  0  0  0  0999 V2000
  -10.1737  -21.6830   30.1111 O   0  0  0  0  0  0  0  0  0  0  0  0
  -10.5933  -21.3087   31.1711 C   0  0  0  0  0  0  0  0  0  0  0  0
  -11.9912  -20.8405   31.1048 C   0  0  0  0  0  0  0  0  0  0  0  0
  -12.6692  -21.5847   29.9086 C   0  0  0  0  0  0  0  0  0  0  0  0
  -12.3127  -23.0370   29.5344 C   0  0  0  0  0  0  0  0  0  0  0  0
  -13.1099  -23.8889   28.5661 C   0  0  0  0  0  0  0  0  0  0  0  0
  -13.0833  -23.6250   27.1946 C   0  0  0  0  0  0  0  0  0  0  0  0
  -13.7044  -24.4898   26.3025 C   0  0  0  0  0  0  0  0  0  0  0  0
  -14.2787  -25.6469   26.7911 C   0  0  0  0  0  0  0  0  0  0  0  0
  -14.2608  -25.9883   28.0892 N   0  0  0  0  0  0  0  0  0  0  0  0
  -13.6849  -25.1052   28.9332 C   0  0  0  0  0  0  0  0  0  0  0  0
  -10.0017  -21.3378   32.4551 N   0  0  0  0  0  0  0  0  0  0  0  0
  -10.3506  -22.6039   33.1695 C   0  0  0  0  0  0  0  0  0  0  0  0
   -9.8022  -22.5662   34.5857 C   0  0  0  0  0  0  0  0  0  0  0  0
   -8.4146  -22.3090   34.2460 C   0  0  0  0  0  0  0  0  0  0  0  0
   -8.6479  -21.7363   32.8788 C   0  0  0  0  0  0  0  0  0  0  0  0
   -8.1048  -22.7660   31.8441 C   0  0  0  0  0  0  0  0  0  0  0  0
   -8.9478  -23.9492   31.6434 N   0  0  0  0  0  0  0  0  0  0  0  0
   -9.3252  -24.3625   30.3553 C   0  0  0  0  0  0  0  0  0  0  0  0
   -8.8191  -23.7791   29.2748 N   0  0  0  0  0  0  0  0  0  0  0  0
   -9.3981  -24.0823   28.0968 C   0  0  0  0  0  0  0  0  0  0  0  0
  -10.2452  -25.1300   27.8692 C   0  0  0  0  0  0  0  0  0  0  0  0
  -10.6710  -25.7333   29.0111 C   0  0  0  0  0  0  0  0  0  0  0  0
  -10.2807  -25.3311   30.2431 N   0  0  0  0  0  0  0  0  0  0  0  0
  -10.0929  -23.9560   32.4833 C   0  0  0  0  0  0  0  0  0  0  0  0
  -12.4846  -21.0070   32.0539 H   0  0  0  0  0  0  0  0  0  0  0  0
  -11.9951  -19.7630   30.9211 H   0  0  0  0  0  0  0  0  0  0  0  0
  -12.4386  -20.9965   29.0148 H   0  0  0  0  0  0  0  0  0  0  0  0
  -13.7147  -21.5526   30.1232 H   0  0  0  0  0  0  0  0  0  0  0  0
  -11.3673  -22.9732   29.0165 H   0  0  0  0  0  0  0  0  0  0  0  0
  -12.1486  -23.6027   30.4398 H   0  0  0  0  0  0  0  0  0  0  0  0
  -12.5717  -22.7422   26.8103 H   0  0  0  0  0  0  0  0  0  0  0  0
  -13.7231  -24.2622   25.2462 H   0  0  0  0  0  0  0  0  0  0  0  0
  -14.7702  -26.3544   26.1300 H   0  0  0  0  0  0  0  0  0  0  0  0
  -13.6207  -25.4940   29.9383 H   0  0  0  0  0  0  0  0  0  0  0  0
  -11.4173  -22.5032   33.2864 H   0  0  0  0  0  0  0  0  0  0  0  0
   -9.8189  -23.4980   35.1355 H   0  0  0  0  0  0  0  0  0  0  0  0
  -10.2483  -21.7566   35.1632 H   0  0  0  0  0  0  0  0  0  0  0  0
   -7.8695  -21.6935   34.9455 H   0  0  0  0  0  0  0  0  0  0  0  0
   -7.8637  -23.2502   34.1969 H   0  0  0  0  0  0  0  0  0  0  0  0
   -8.0787  -20.8161   32.8366 H   0  0  0  0  0  0  0  0  0  0  0  0
   -7.1688  -23.0326   32.3186 H   0  0  0  0  0  0  0  0  0  0  0  0
   -7.8842  -22.3488   30.8791 H   0  0  0  0  0  0  0  0  0  0  0  0
   -9.2101  -23.3582   27.3168 H   0  0  0  0  0  0  0  0  0  0  0  0
  -10.6290  -25.3825   26.8939 H   0  0  0  0  0  0  0  0  0  0  0  0
  -11.3617  -26.5704   28.9873 H   0  0  0  0  0  0  0  0  0  0  0  0
  -10.9976  -24.1493   31.9170 H   0  0  0  0  0  0  0  0  0  0  0  0
   -9.9496  -24.7617   33.2088 H   0  0  0  0  0  0  0  0  0  0  0  0
  1  2  2  0
  2  3  1  0
  3  4  1  0
  4  5  1  0
  5  6  1  0
  6  7  2  0
  7  8  1  0
  8  9  2  0
  9 10  1  0
 10 11  2  0
  2 12  1  0
 12 13  1  0
 13 14  1  0
 14 15  1  0
 15 16  1  0
 16 17  1  0
 17 18  1  0
 18 19  1  0
 19 20  2  0
 20 21  1  0
 21 22  2  0
 22 23  1  0
 23 24  2  0
 18 25  1  0
 11  6  1  0
 16 12  1  0
 24 19  1  0
 25 13  1  0
  3 26  1  0
  3 27  1  0
  4 28  1  0
  4 29  1  0
  5 30  1  0
  5 31  1  0
  7 32  1  0
  8 33  1  0
  9 34  1  0
 11 35  1  0
 13 36  1  0
 14 37  1  0
 14 38  1  0
 15 39  1  0
 15 40  1  0
 16 41  1  0
 17 42  1  0
 17 43  1  0
 21 44  1  0
 22 45  1  0
 23 46  1  0
 25 47  1  0
 25 48  1  0
M  END
>  <Energy>  (36) 
130.09603493645645

>  <compound_id>  (36) 
34610

>  <target_id>  (36) 
1

>  <reference_id>  (36) 
54

>  <inspiration_ids>  (36) 
[82, 54]

>  <energy_score>  (36) 
76.47866804817585

>  <distance_score>  (36) 
3.364380212126386

>  <path>  (36) 
/opt/xchem-fragalysis-2/maxwin/BulkDock/SCRATCH/511015/C34610-P54/C34610-P54.minimised.mol

>  <scratch_subdir>  (36) 
/opt/xchem-fragalysis-2/maxwin/BulkDock/SCRATCH/511015/C34610-P54

>  <fragmenstein_runtime>  (36) 
8.420557260513306

>  <fragmenstein_outcome>  (36) 
too moved

>  <fragmenstein_mode>  (36) 
expansion

>  <fragmenstein_error>  (36) 


$$$$
C34611-P82
     RDKit          3D

 42 45  0  0  0  0  0  0  0  0999 V2000
  -12.3709  -21.5067   32.2357 O   0  0  0  0  0  0  0  0  0  0  0  0
  -12.9963  -22.2852   32.9054 C   0  0  0  0  0  0  0  0  0  0  0  0
  -12.3629  -23.6214   33.2979 C   0  0  0  0  0  0  0  0  0  0  0  0
  -11.6645  -24.3095   32.1461 C   0  0  0  0  0  0  0  0  0  0  0  0
  -10.6302  -25.2057   32.3842 C   0  0  0  0  0  0  0  0  0  0  0  0
  -10.0261  -25.8576   31.3153 C   0  0  0  0  0  0  0  0  0  0  0  0
  -10.4708  -25.6162   30.0329 C   0  0  0  0  0  0  0  0  0  0  0  0
  -11.4697  -24.7700   29.7537 N   0  0  0  0  0  0  0  0  0  0  0  0
  -12.0465  -24.1488   30.8133 C   0  0  0  0  0  0  0  0  0  0  0  0
  -14.3478  -22.2379   33.3648 N   0  0  0  0  0  0  0  0  0  0  0  0
  -15.2610  -22.9172   32.3606 C   0  0  0  0  0  0  0  0  0  0  0  0
  -16.6577  -23.4131   32.8535 C   0  0  0  0  0  0  0  0  0  0  0  0
  -16.6795  -23.6548   34.3747 C   0  0  0  0  0  0  0  0  0  0  0  0
  -16.9631  -22.2542   34.9466 C   0  0  0  0  0  0  0  0  0  0  0  0
  -16.8850  -21.3533   33.7072 C   0  0  0  0  0  0  0  0  0  0  0  0
  -15.4051  -21.1305   33.2524 C   0  0  0  0  0  0  0  0  0  0  0  0
  -17.5047  -22.2434   32.7487 N   0  0  0  0  0  0  0  0  0  0  0  0
  -17.8804  -21.8606   31.4919 C   0  0  0  0  0  0  0  0  0  0  0  0
  -18.0674  -22.8183   30.5689 N   0  0  0  0  0  0  0  0  0  0  0  0
  -18.6820  -22.4827   29.4276 C   0  0  0  0  0  0  0  0  0  0  0  0
  -19.0862  -21.2078   29.1512 C   0  0  0  0  0  0  0  0  0  0  0  0
  -18.7803  -20.2814   30.1165 C   0  0  0  0  0  0  0  0  0  0  0  0
  -18.1434  -20.5695   31.2655 N   0  0  0  0  0  0  0  0  0  0  0  0
  -11.6554  -23.4087   34.0971 H   0  0  0  0  0  0  0  0  0  0  0  0
  -13.1127  -24.3089   33.7031 H   0  0  0  0  0  0  0  0  0  0  0  0
  -10.2935  -25.4209   33.3923 H   0  0  0  0  0  0  0  0  0  0  0  0
   -9.2202  -26.5571   31.4805 H   0  0  0  0  0  0  0  0  0  0  0  0
  -10.0192  -26.1102   29.1801 H   0  0  0  0  0  0  0  0  0  0  0  0
  -12.8603  -23.4885   30.5316 H   0  0  0  0  0  0  0  0  0  0  0  0
  -14.7107  -23.8407   32.1867 H   0  0  0  0  0  0  0  0  0  0  0  0
  -15.2423  -22.4381   31.3675 H   0  0  0  0  0  0  0  0  0  0  0  0
  -17.0620  -24.2786   32.3300 H   0  0  0  0  0  0  0  0  0  0  0  0
  -15.7462  -24.0962   34.7297 H   0  0  0  0  0  0  0  0  0  0  0  0
  -17.4956  -24.3330   34.6501 H   0  0  0  0  0  0  0  0  0  0  0  0
  -16.2921  -21.9594   35.7463 H   0  0  0  0  0  0  0  0  0  0  0  0
  -17.9805  -22.2364   35.3585 H   0  0  0  0  0  0  0  0  0  0  0  0
  -17.4212  -20.4091   33.8466 H   0  0  0  0  0  0  0  0  0  0  0  0
  -15.0017  -20.3805   33.9495 H   0  0  0  0  0  0  0  0  0  0  0  0
  -15.3341  -20.6111   32.2828 H   0  0  0  0  0  0  0  0  0  0  0  0
  -18.8572  -23.2978   28.7325 H   0  0  0  0  0  0  0  0  0  0  0  0
  -19.6005  -20.9490   28.2365 H   0  0  0  0  0  0  0  0  0  0  0  0
  -19.0591  -19.2383   29.9955 H   0  0  0  0  0  0  0  0  0  0  0  0
  1  2  2  0
  2  3  1  0
  3  4  1  0
  4  5  2  0
  5  6  1  0
  6  7  2  0
  7  8  1  0
  8  9  2  0
  2 10  1  0
 10 11  1  0
 11 12  1  0
 12 13  1  0
 13 14  1  0
 14 15  1  0
 15 16  1  0
 15 17  1  0
 17 18  1  0
 18 19  2  0
 19 20  1  0
 20 21  2  0
 21 22  1  0
 22 23  2  0
  9  4  1  0
 16 10  1  0
 23 18  1  0
 17 12  1  0
  3 24  1  0
  3 25  1  0
  5 26  1  0
  6 27  1  0
  7 28  1  0
  9 29  1  0
 11 30  1  0
 11 31  1  0
 12 32  1  0
 13 33  1  0
 13 34  1  0
 14 35  1  0
 14 36  1  0
 15 37  1  0
 16 38  1  0
 16 39  1  0
 20 40  1  0
 21 41  1  0
 22 42  1  0
M  END
>  <Energy>  (37) 
94.043800225034275

>  <compound_id>  (37) 
34611

>  <target_id>  (37) 
1

>  <reference_id>  (37) 
82

>  <inspiration_ids>  (37) 
[82, 54]

>  <energy_score>  (37) 
35.09694914047597

>  <distance_score>  (37) 
6.268054649816448

>  <path>  (37) 
/opt/xchem-fragalysis-2/maxwin/BulkDock/SCRATCH/511015/C34611-P82/C34611-P82.minimised.mol

>  <scratch_subdir>  (37) 
/opt/xchem-fragalysis-2/maxwin/BulkDock/SCRATCH/511015/C34611-P82

>  <fragmenstein_runtime>  (37) 
8.918662548065186

>  <fragmenstein_outcome>  (37) 
too moved

>  <fragmenstein_mode>  (37) 
expansion

>  <fragmenstein_error>  (37) 


$$$$
C34611-P54
     RDKit          3D

 42 45  0  0  0  0  0  0  0  0999 V2000
  -12.1210  -21.2791   28.6908 O   0  0  0  0  0  0  0  0  0  0  0  0
  -11.6627  -22.2871   29.1593 C   0  0  0  0  0  0  0  0  0  0  0  0
  -10.3854  -22.1374   29.9199 C   0  0  0  0  0  0  0  0  0  0  0  0
  -10.2024  -22.7349   31.2748 C   0  0  0  0  0  0  0  0  0  0  0  0
   -9.4263  -23.8792   31.4412 C   0  0  0  0  0  0  0  0  0  0  0  0
   -9.0039  -24.2444   32.7103 C   0  0  0  0  0  0  0  0  0  0  0  0
   -9.3790  -23.4510   33.7706 C   0  0  0  0  0  0  0  0  0  0  0  0
  -10.1860  -22.3831   33.6608 N   0  0  0  0  0  0  0  0  0  0  0  0
  -10.5908  -22.0478   32.4180 C   0  0  0  0  0  0  0  0  0  0  0  0
  -12.0819  -23.6314   29.0358 N   0  0  0  0  0  0  0  0  0  0  0  0
  -11.3673  -24.3061   27.8257 C   0  0  0  0  0  0  0  0  0  0  0  0
  -11.3912  -25.8850   27.7324 C   0  0  0  0  0  0  0  0  0  0  0  0
  -11.3976  -26.5068   29.1351 C   0  0  0  0  0  0  0  0  0  0  0  0
  -12.8652  -26.4495   29.5448 C   0  0  0  0  0  0  0  0  0  0  0  0
  -13.5283  -25.7432   28.3575 C   0  0  0  0  0  0  0  0  0  0  0  0
  -13.3028  -24.2262   28.3710 C   0  0  0  0  0  0  0  0  0  0  0  0
  -12.7200  -26.1267   27.2084 N   0  0  0  0  0  0  0  0  0  0  0  0
  -13.1329  -27.3291   26.7117 C   0  0  0  0  0  0  0  0  0  0  0  0
  -14.0317  -27.2409   25.7225 N   0  0  0  0  0  0  0  0  0  0  0  0
  -14.6374  -28.3731   25.3455 C   0  0  0  0  0  0  0  0  0  0  0  0
  -14.4052  -29.5823   25.9474 C   0  0  0  0  0  0  0  0  0  0  0  0
  -13.4735  -29.5717   26.9544 C   0  0  0  0  0  0  0  0  0  0  0  0
  -12.8079  -28.4692   27.3344 N   0  0  0  0  0  0  0  0  0  0  0  0
   -9.5703  -22.4524   29.2583 H   0  0  0  0  0  0  0  0  0  0  0  0
  -10.2763  -21.0552   30.0344 H   0  0  0  0  0  0  0  0  0  0  0  0
   -9.0668  -24.4320   30.5801 H   0  0  0  0  0  0  0  0  0  0  0  0
   -8.3416  -25.0852   32.8705 H   0  0  0  0  0  0  0  0  0  0  0  0
   -9.0423  -23.6649   34.7746 H   0  0  0  0  0  0  0  0  0  0  0  0
  -11.2005  -21.1482   32.3667 H   0  0  0  0  0  0  0  0  0  0  0  0
  -11.5853  -23.7956   26.8709 H   0  0  0  0  0  0  0  0  0  0  0  0
  -10.3054  -24.0712   27.9868 H   0  0  0  0  0  0  0  0  0  0  0  0
  -10.5904  -26.2503   27.0813 H   0  0  0  0  0  0  0  0  0  0  0  0
  -11.0553  -27.5469   29.1134 H   0  0  0  0  0  0  0  0  0  0  0  0
  -10.7723  -25.9572   29.8399 H   0  0  0  0  0  0  0  0  0  0  0  0
  -13.2632  -27.4614   29.6794 H   0  0  0  0  0  0  0  0  0  0  0  0
  -12.9896  -25.9387   30.4911 H   0  0  0  0  0  0  0  0  0  0  0  0
  -14.5965  -25.9710   28.2557 H   0  0  0  0  0  0  0  0  0  0  0  0
  -14.1081  -23.8335   28.9926 H   0  0  0  0  0  0  0  0  0  0  0  0
  -13.5296  -23.7496   27.4010 H   0  0  0  0  0  0  0  0  0  0  0  0
  -15.3487  -28.2724   24.5313 H   0  0  0  0  0  0  0  0  0  0  0  0
  -14.9181  -30.4838   25.6442 H   0  0  0  0  0  0  0  0  0  0  0  0
  -13.2158  -30.4791   27.4922 H   0  0  0  0  0  0  0  0  0  0  0  0
  1  2  2  0
  2  3  1  0
  3  4  1  0
  4  5  2  0
  5  6  1  0
  6  7  2  0
  7  8  1  0
  8  9  2  0
  2 10  1  0
 10 11  1  0
 11 12  1  0
 12 13  1  0
 13 14  1  0
 14 15  1  0
 15 16  1  0
 15 17  1  0
 17 18  1  0
 18 19  2  0
 19 20  1  0
 20 21  2  0
 21 22  1  0
 22 23  2  0
  9  4  1  0
 16 10  1  0
 23 18  1  0
 17 12  1  0
  3 24  1  0
  3 25  1  0
  5 26  1  0
  6 27  1  0
  7 28  1  0
  9 29  1  0
 11 30  1  0
 11 31  1  0
 12 32  1  0
 13 33  1  0
 13 34  1  0
 14 35  1  0
 14 36  1  0
 15 37  1  0
 16 38  1  0
 16 39  1  0
 20 40  1  0
 21 41  1  0
 22 42  1  0
M  END
>  <Energy>  (38) 
107.48390364570136

>  <compound_id>  (38) 
34611

>  <target_id>  (38) 
1

>  <reference_id>  (38) 
54

>  <inspiration_ids>  (38) 
[82, 54]

>  <energy_score>  (38) 
48.5370525611425

>  <distance_score>  (38) 
5.364732868841226

>  <path>  (38) 
/opt/xchem-fragalysis-2/maxwin/BulkDock/SCRATCH/511015/C34611-P54/C34611-P54.minimised.mol

>  <scratch_subdir>  (38) 
/opt/xchem-fragalysis-2/maxwin/BulkDock/SCRATCH/511015/C34611-P54

>  <fragmenstein_runtime>  (38) 
8.66262674331665

>  <fragmenstein_outcome>  (38) 
too moved

>  <fragmenstein_mode>  (38) 
expansion

>  <fragmenstein_error>  (38) 


$$$$
C34612-P82
     RDKit          3D

 42 45  0  0  0  0  0  0  0  0999 V2000
  -14.4264  -24.3430   33.2384 O   0  0  0  0  0  0  0  0  0  0  0  0
  -13.5962  -24.1267   32.3986 C   0  0  0  0  0  0  0  0  0  0  0  0
  -12.5514  -25.0161   31.8291 C   0  0  0  0  0  0  0  0  0  0  0  0
  -11.3767  -25.6089   32.4022 C   0  0  0  0  0  0  0  0  0  0  0  0
  -10.6799  -26.3231   31.4432 C   0  0  0  0  0  0  0  0  0  0  0  0
   -9.3502  -26.3384   31.5235 C   0  0  0  0  0  0  0  0  0  0  0  0
   -8.7662  -25.6679   32.5626 C   0  0  0  0  0  0  0  0  0  0  0  0
   -9.4548  -25.1888   33.6109 N   0  0  0  0  0  0  0  0  0  0  0  0
  -10.7827  -25.1747   33.5316 C   0  0  0  0  0  0  0  0  0  0  0  0
  -13.3828  -23.0253   31.6082 N   0  0  0  0  0  0  0  0  0  0  0  0
  -12.4139  -22.0432   32.2959 C   0  0  0  0  0  0  0  0  0  0  0  0
  -12.9807  -21.6633   33.5839 C   0  0  0  0  0  0  0  0  0  0  0  0
  -14.3128  -21.3371   32.9211 C   0  0  0  0  0  0  0  0  0  0  0  0
  -14.1067  -21.8583   31.4496 C   0  0  0  0  0  0  0  0  0  0  0  0
  -12.9173  -21.7159   30.0377 C   0  0  0  0  0  0  0  0  0  0  0  0
  -11.4652  -22.0470   30.2205 N   0  0  0  0  0  0  0  0  0  0  0  0
  -11.2251  -22.9505   29.1491 C   0  0  0  0  0  0  0  0  0  0  0  0
  -11.6663  -22.5685   27.9312 N   0  0  0  0  0  0  0  0  0  0  0  0
  -11.7318  -23.4745   26.9417 C   0  0  0  0  0  0  0  0  0  0  0  0
  -11.2649  -24.7480   27.0665 C   0  0  0  0  0  0  0  0  0  0  0  0
  -10.7172  -25.0269   28.2867 C   0  0  0  0  0  0  0  0  0  0  0  0
  -10.7018  -24.1665   29.3269 N   0  0  0  0  0  0  0  0  0  0  0  0
  -11.1239  -22.2577   31.6724 C   0  0  0  0  0  0  0  0  0  0  0  0
  -12.0140  -24.3825   31.1358 H   0  0  0  0  0  0  0  0  0  0  0  0
  -12.9147  -25.5786   30.9828 H   0  0  0  0  0  0  0  0  0  0  0  0
  -11.1439  -26.7508   30.5624 H   0  0  0  0  0  0  0  0  0  0  0  0
   -8.8760  -27.1067   30.9473 H   0  0  0  0  0  0  0  0  0  0  0  0
   -7.7011  -25.7006   32.6952 H   0  0  0  0  0  0  0  0  0  0  0  0
  -11.3436  -24.6736   34.3099 H   0  0  0  0  0  0  0  0  0  0  0  0
  -12.3832  -20.9917   31.9614 H   0  0  0  0  0  0  0  0  0  0  0  0
  -12.5078  -20.8261   34.1002 H   0  0  0  0  0  0  0  0  0  0  0  0
  -12.9704  -22.5679   34.1568 H   0  0  0  0  0  0  0  0  0  0  0  0
  -14.6298  -20.2981   32.9958 H   0  0  0  0  0  0  0  0  0  0  0  0
  -15.1098  -21.9041   33.4198 H   0  0  0  0  0  0  0  0  0  0  0  0
  -15.0863  -22.0518   30.9998 H   0  0  0  0  0  0  0  0  0  0  0  0
  -13.2660  -22.5467   29.4569 H   0  0  0  0  0  0  0  0  0  0  0  0
  -12.8941  -20.8769   29.3438 H   0  0  0  0  0  0  0  0  0  0  0  0
  -12.1729  -23.1151   26.0165 H   0  0  0  0  0  0  0  0  0  0  0  0
  -11.2985  -25.4612   26.2593 H   0  0  0  0  0  0  0  0  0  0  0  0
  -10.2609  -25.9910   28.4832 H   0  0  0  0  0  0  0  0  0  0  0  0
  -10.6490  -23.1986   31.9218 H   0  0  0  0  0  0  0  0  0  0  0  0
  -10.4788  -21.4338   32.0099 H   0  0  0  0  0  0  0  0  0  0  0  0
  1  2  2  0
  2  3  1  0
  3  4  1  0
  4  5  2  0
  5  6  1  0
  6  7  2  0
  7  8  1  0
  8  9  2  0
  2 10  1  0
 10 11  1  0
 11 12  1  0
 12 13  1  0
 13 14  1  0
 14 15  1  0
 15 16  1  0
 16 17  1  0
 17 18  2  0
 18 19  1  0
 19 20  2  0
 20 21  1  0
 21 22  2  0
 16 23  1  0
  9  4  1  0
 14 10  1  0
 22 17  1  0
 23 11  1  0
  3 24  1  0
  3 25  1  0
  5 26  1  0
  6 27  1  0
  7 28  1  0
  9 29  1  0
 11 30  1  0
 12 31  1  0
 12 32  1  0
 13 33  1  0
 13 34  1  0
 14 35  1  0
 15 36  1  0
 15 37  1  0
 19 38  1  0
 20 39  1  0
 21 40  1  0
 23 41  1  0
 23 42  1  0
M  END
>  <Energy>  (39) 
313.99743640175302

>  <compound_id>  (39) 
34612

>  <target_id>  (39) 
1

>  <reference_id>  (39) 
82

>  <inspiration_ids>  (39) 
[82, 54]

>  <energy_score>  (39) 
265.87205421720904

>  <distance_score>  (39) 
2.6955246607042547

>  <path>  (39) 
/opt/xchem-fragalysis-2/maxwin/BulkDock/SCRATCH/511015/C34612-P82/C34612-P82.minimised.mol

>  <scratch_subdir>  (39) 
/opt/xchem-fragalysis-2/maxwin/BulkDock/SCRATCH/511015/C34612-P82

>  <fragmenstein_runtime>  (39) 
6.034517526626587

>  <fragmenstein_outcome>  (39) 
too moved

>  <fragmenstein_mode>  (39) 
expansion

>  <fragmenstein_error>  (39) 


$$$$
C34612-P54
     RDKit          3D

 42 45  0  0  0  0  0  0  0  0999 V2000
   -9.7200  -23.7456   34.6831 O   0  0  0  0  0  0  0  0  0  0  0  0
   -9.7428  -24.0642   33.5294 C   0  0  0  0  0  0  0  0  0  0  0  0
   -9.4747  -25.4539   32.9903 C   0  0  0  0  0  0  0  0  0  0  0  0
  -10.7409  -26.1781   32.4130 C   0  0  0  0  0  0  0  0  0  0  0  0
  -11.2864  -27.3302   33.0081 C   0  0  0  0  0  0  0  0  0  0  0  0
  -12.3884  -27.9806   32.4563 C   0  0  0  0  0  0  0  0  0  0  0  0
  -12.9257  -27.4790   31.2923 C   0  0  0  0  0  0  0  0  0  0  0  0
  -12.4335  -26.3980   30.6645 N   0  0  0  0  0  0  0  0  0  0  0  0
  -11.3475  -25.7993   31.2161 C   0  0  0  0  0  0  0  0  0  0  0  0
  -10.0989  -23.3337   32.3870 N   0  0  0  0  0  0  0  0  0  0  0  0
   -8.9305  -22.6755   31.8340 C   0  0  0  0  0  0  0  0  0  0  0  0
   -8.7215  -21.5078   32.9416 C   0  0  0  0  0  0  0  0  0  0  0  0
  -10.1482  -21.0795   33.3173 C   0  0  0  0  0  0  0  0  0  0  0  0
  -10.6899  -21.9118   32.2301 C   0  0  0  0  0  0  0  0  0  0  0  0
  -11.5021  -21.9804   30.9222 C   0  0  0  0  0  0  0  0  0  0  0  0
  -10.5009  -22.3091   29.8176 N   0  0  0  0  0  0  0  0  0  0  0  0
  -11.0456  -23.0905   28.7868 C   0  0  0  0  0  0  0  0  0  0  0  0
  -12.3786  -23.1827   28.6708 N   0  0  0  0  0  0  0  0  0  0  0  0
  -12.8749  -24.1085   27.8255 C   0  0  0  0  0  0  0  0  0  0  0  0
  -12.1007  -24.9308   27.0567 C   0  0  0  0  0  0  0  0  0  0  0  0
  -10.7556  -24.7389   27.1980 C   0  0  0  0  0  0  0  0  0  0  0  0
  -10.2117  -23.8311   28.0306 N   0  0  0  0  0  0  0  0  0  0  0  0
   -9.1873  -22.8621   30.2997 C   0  0  0  0  0  0  0  0  0  0  0  0
   -8.9827  -26.0522   33.7628 H   0  0  0  0  0  0  0  0  0  0  0  0
   -8.7380  -25.3219   32.1971 H   0  0  0  0  0  0  0  0  0  0  0  0
  -10.8123  -27.7722   33.8789 H   0  0  0  0  0  0  0  0  0  0  0  0
  -12.7925  -28.8787   32.9116 H   0  0  0  0  0  0  0  0  0  0  0  0
  -13.7796  -27.9513   30.8162 H   0  0  0  0  0  0  0  0  0  0  0  0
  -10.9834  -24.9680   30.6374 H   0  0  0  0  0  0  0  0  0  0  0  0
   -8.0478  -23.2813   32.0285 H   0  0  0  0  0  0  0  0  0  0  0  0
   -8.1506  -20.6466   32.6642 H   0  0  0  0  0  0  0  0  0  0  0  0
   -8.2174  -21.9181   33.8256 H   0  0  0  0  0  0  0  0  0  0  0  0
  -10.3463  -20.0088   33.2109 H   0  0  0  0  0  0  0  0  0  0  0  0
  -10.4568  -21.4008   34.3142 H   0  0  0  0  0  0  0  0  0  0  0  0
  -10.1834  -21.1564   31.5806 H   0  0  0  0  0  0  0  0  0  0  0  0
  -12.2078  -22.7926   31.0050 H   0  0  0  0  0  0  0  0  0  0  0  0
  -12.0435  -21.0537   30.6946 H   0  0  0  0  0  0  0  0  0  0  0  0
  -13.9583  -24.1794   27.7986 H   0  0  0  0  0  0  0  0  0  0  0  0
  -12.5191  -25.6760   26.3971 H   0  0  0  0  0  0  0  0  0  0  0  0
  -10.0470  -25.3433   26.6428 H   0  0  0  0  0  0  0  0  0  0  0  0
   -9.2081  -23.9567   30.1820 H   0  0  0  0  0  0  0  0  0  0  0  0
   -8.3404  -22.6257   29.6598 H   0  0  0  0  0  0  0  0  0  0  0  0
  1  2  2  0
  2  3  1  0
  3  4  1  0
  4  5  2  0
  5  6  1  0
  6  7  2  0
  7  8  1  0
  8  9  2  0
  2 10  1  0
 10 11  1  0
 11 12  1  0
 12 13  1  0
 13 14  1  0
 14 15  1  0
 15 16  1  0
 16 17  1  0
 17 18  2  0
 18 19  1  0
 19 20  2  0
 20 21  1  0
 21 22  2  0
 16 23  1  0
  9  4  1  0
 14 10  1  0
 22 17  1  0
 23 11  1  0
  3 24  1  0
  3 25  1  0
  5 26  1  0
  6 27  1  0
  7 28  1  0
  9 29  1  0
 11 30  1  0
 12 31  1  0
 12 32  1  0
 13 33  1  0
 13 34  1  0
 14 35  1  0
 15 36  1  0
 15 37  1  0
 19 38  1  0
 20 39  1  0
 21 40  1  0
 23 41  1  0
 23 42  1  0
M  END
>  <Energy>  (40) 
203.62958164105893

>  <compound_id>  (40) 
34612

>  <target_id>  (40) 
1

>  <reference_id>  (40) 
54

>  <inspiration_ids>  (40) 
[82, 54]

>  <energy_score>  (40) 
155.50419945651493

>  <distance_score>  (40) 
2.761796402350943

>  <path>  (40) 
/opt/xchem-fragalysis-2/maxwin/BulkDock/SCRATCH/511015/C34612-P54/C34612-P54.minimised.mol

>  <scratch_subdir>  (40) 
/opt/xchem-fragalysis-2/maxwin/BulkDock/SCRATCH/511015/C34612-P54

>  <fragmenstein_runtime>  (40) 
8.859213590621948

>  <fragmenstein_outcome>  (40) 
too moved

>  <fragmenstein_mode>  (40) 
expansion

>  <fragmenstein_error>  (40) 


$$$$
C34613-P82
     RDKit          3D

 48 51  0  0  0  0  0  0  0  0999 V2000
  -13.5951  -24.3713   30.9480 O   0  0  0  0  0  0  0  0  0  0  0  0
  -13.4860  -23.6939   31.9034 C   0  0  0  0  0  0  0  0  0  0  0  0
  -14.4471  -23.6381   33.0076 C   0  0  0  0  0  0  0  0  0  0  0  0
  -13.6341  -24.5100   34.0252 C   0  0  0  0  0  0  0  0  0  0  0  0
  -12.0024  -24.6593   34.0374 C   0  0  0  0  0  0  0  0  0  0  0  0
  -11.0492  -25.2595   33.0381 C   0  0  0  0  0  0  0  0  0  0  0  0
  -11.4680  -25.8530   31.8881 C   0  0  0  0  0  0  0  0  0  0  0  0
  -10.6761  -26.4899   30.9764 C   0  0  0  0  0  0  0  0  0  0  0  0
   -9.3812  -26.5007   31.3052 C   0  0  0  0  0  0  0  0  0  0  0  0
   -8.9256  -25.7239   32.3623 C   0  0  0  0  0  0  0  0  0  0  0  0
   -9.7336  -25.1417   33.2611 N   0  0  0  0  0  0  0  0  0  0  0  0
  -12.4640  -22.8909   32.3045 N   0  0  0  0  0  0  0  0  0  0  0  0
  -11.1406  -22.6872   31.7532 C   0  0  0  0  0  0  0  0  0  0  0  0
  -10.6577  -21.2304   31.9187 C   0  0  0  0  0  0  0  0  0  0  0  0
  -11.7595  -20.8050   32.7418 C   0  0  0  0  0  0  0  0  0  0  0  0
  -12.6492  -21.5682   31.7926 C   0  0  0  0  0  0  0  0  0  0  0  0
  -12.4733  -21.7240   29.9759 C   0  0  0  0  0  0  0  0  0  0  0  0
  -11.3366  -22.4985   29.4449 N   0  0  0  0  0  0  0  0  0  0  0  0
  -11.4966  -23.2176   28.2466 C   0  0  0  0  0  0  0  0  0  0  0  0
  -12.3860  -22.8411   27.3395 N   0  0  0  0  0  0  0  0  0  0  0  0
  -12.6054  -23.6778   26.3015 C   0  0  0  0  0  0  0  0  0  0  0  0
  -12.0055  -24.8973   26.1516 C   0  0  0  0  0  0  0  0  0  0  0  0
  -11.0660  -25.1808   27.0919 C   0  0  0  0  0  0  0  0  0  0  0  0
  -10.7575  -24.3411   28.0839 N   0  0  0  0  0  0  0  0  0  0  0  0
  -11.0343  -23.4701   30.4349 C   0  0  0  0  0  0  0  0  0  0  0  0
  -14.6090  -22.6278   33.3972 H   0  0  0  0  0  0  0  0  0  0  0  0
  -15.4243  -24.0647   32.7966 H   0  0  0  0  0  0  0  0  0  0  0  0
  -14.0715  -25.4790   34.2411 H   0  0  0  0  0  0  0  0  0  0  0  0
  -13.9396  -24.0050   34.9220 H   0  0  0  0  0  0  0  0  0  0  0  0
  -11.6308  -23.6903   34.3730 H   0  0  0  0  0  0  0  0  0  0  0  0
  -11.6820  -25.3593   34.7985 H   0  0  0  0  0  0  0  0  0  0  0  0
  -12.4904  -25.8067   31.6443 H   0  0  0  0  0  0  0  0  0  0  0  0
  -11.0757  -27.0147   30.1222 H   0  0  0  0  0  0  0  0  0  0  0  0
   -8.8114  -27.3253   30.9054 H   0  0  0  0  0  0  0  0  0  0  0  0
   -7.8817  -25.7280   32.6330 H   0  0  0  0  0  0  0  0  0  0  0  0
  -10.4670  -23.1731   32.4454 H   0  0  0  0  0  0  0  0  0  0  0  0
  -10.6435  -20.7235   30.9632 H   0  0  0  0  0  0  0  0  0  0  0  0
   -9.6718  -21.0521   32.3090 H   0  0  0  0  0  0  0  0  0  0  0  0
  -11.8014  -21.2339   33.7512 H   0  0  0  0  0  0  0  0  0  0  0  0
  -11.7756  -19.7479   32.9332 H   0  0  0  0  0  0  0  0  0  0  0  0
  -13.7030  -21.3032   31.9550 H   0  0  0  0  0  0  0  0  0  0  0  0
  -13.3404  -22.3117   29.7834 H   0  0  0  0  0  0  0  0  0  0  0  0
  -12.4592  -20.8010   29.4126 H   0  0  0  0  0  0  0  0  0  0  0  0
  -13.3329  -23.3349   25.5723 H   0  0  0  0  0  0  0  0  0  0  0  0
  -12.2461  -25.5743   25.3511 H   0  0  0  0  0  0  0  0  0  0  0  0
  -10.5115  -26.1112   27.0871 H   0  0  0  0  0  0  0  0  0  0  0  0
  -11.7302  -24.2758   30.3025 H   0  0  0  0  0  0  0  0  0  0  0  0
  -10.0912  -24.0061   30.3388 H   0  0  0  0  0  0  0  0  0  0  0  0
  1  2  2  0
  2  3  1  0
  3  4  1  0
  4  5  1  0
  5  6  1  0
  6  7  2  0
  7  8  1  0
  8  9  2  0
  9 10  1  0
 10 11  2  0
  2 12  1  0
 12 13  1  0
 13 14  1  0
 14 15  1  0
 15 16  1  0
 16 17  1  0
 17 18  1  0
 18 19  1  0
 19 20  2  0
 20 21  1  0
 21 22  2  0
 22 23  1  0
 23 24  2  0
 18 25  1  0
 11  6  1  0
 16 12  1  0
 24 19  1  0
 25 13  1  0
  3 26  1  0
  3 27  1  0
  4 28  1  0
  4 29  1  0
  5 30  1  0
  5 31  1  0
  7 32  1  0
  8 33  1  0
  9 34  1  0
 10 35  1  0
 13 36  1  0
 14 37  1  0
 14 38  1  0
 15 39  1  0
 15 40  1  0
 16 41  1  0
 17 42  1  0
 17 43  1  0
 21 44  1  0
 22 45  1  0
 23 46  1  0
 25 47  1  0
 25 48  1  0
M  END
>  <Energy>  (41) 
233.43734073848859

>  <compound_id>  (41) 
34613

>  <target_id>  (41) 
1

>  <reference_id>  (41) 
82

>  <inspiration_ids>  (41) 
[82, 54]

>  <energy_score>  (41) 
201.79652866603425

>  <distance_score>  (41) 
2.6673789996377986

>  <path>  (41) 
/opt/xchem-fragalysis-2/maxwin/BulkDock/SCRATCH/511015/C34613-P82/C34613-P82.minimised.mol

>  <scratch_subdir>  (41) 
/opt/xchem-fragalysis-2/maxwin/BulkDock/SCRATCH/511015/C34613-P82

>  <fragmenstein_runtime>  (41) 
11.446757555007935

>  <fragmenstein_outcome>  (41) 
too moved

>  <fragmenstein_mode>  (41) 
expansion

>  <fragmenstein_error>  (41) 


$$$$
C34613-P54
     RDKit          3D

 48 51  0  0  0  0  0  0  0  0999 V2000
  -10.2453  -25.1018   31.3032 O   0  0  0  0  0  0  0  0  0  0  0  0
   -9.7543  -24.4184   30.4429 C   0  0  0  0  0  0  0  0  0  0  0  0
   -8.8630  -23.2525   30.7938 C   0  0  0  0  0  0  0  0  0  0  0  0
   -8.5089  -23.1447   32.2848 C   0  0  0  0  0  0  0  0  0  0  0  0
   -9.6197  -22.8483   33.2774 C   0  0  0  0  0  0  0  0  0  0  0  0
  -10.5613  -21.7370   32.9301 C   0  0  0  0  0  0  0  0  0  0  0  0
  -11.0654  -20.9356   33.9403 C   0  0  0  0  0  0  0  0  0  0  0  0
  -12.0090  -19.9746   33.6260 C   0  0  0  0  0  0  0  0  0  0  0  0
  -12.4249  -19.8408   32.3168 C   0  0  0  0  0  0  0  0  0  0  0  0
  -11.8734  -20.6656   31.3642 C   0  0  0  0  0  0  0  0  0  0  0  0
  -10.9744  -21.6191   31.6485 N   0  0  0  0  0  0  0  0  0  0  0  0
   -9.9020  -24.4682   29.0075 N   0  0  0  0  0  0  0  0  0  0  0  0
  -10.6323  -25.4655   28.1193 C   0  0  0  0  0  0  0  0  0  0  0  0
  -10.9413  -24.9355   26.7324 C   0  0  0  0  0  0  0  0  0  0  0  0
  -11.1437  -23.5015   27.0511 C   0  0  0  0  0  0  0  0  0  0  0  0
  -11.0544  -23.5677   28.5630 C   0  0  0  0  0  0  0  0  0  0  0  0
  -12.3788  -23.8362   29.3131 C   0  0  0  0  0  0  0  0  0  0  0  0
  -12.8890  -25.1853   29.0551 N   0  0  0  0  0  0  0  0  0  0  0  0
  -13.8961  -25.3111   28.1114 C   0  0  0  0  0  0  0  0  0  0  0  0
  -14.3407  -24.2240   27.4716 N   0  0  0  0  0  0  0  0  0  0  0  0
  -15.3183  -24.3868   26.5643 C   0  0  0  0  0  0  0  0  0  0  0  0
  -15.8559  -25.6032   26.2444 C   0  0  0  0  0  0  0  0  0  0  0  0
  -15.3300  -26.6642   26.9298 C   0  0  0  0  0  0  0  0  0  0  0  0
  -14.3605  -26.5423   27.8503 N   0  0  0  0  0  0  0  0  0  0  0  0
  -11.8197  -26.1615   28.8468 C   0  0  0  0  0  0  0  0  0  0  0  0
   -9.3267  -22.3429   30.4356 H   0  0  0  0  0  0  0  0  0  0  0  0
   -7.9694  -23.3371   30.1755 H   0  0  0  0  0  0  0  0  0  0  0  0
   -7.7483  -22.3735   32.4102 H   0  0  0  0  0  0  0  0  0  0  0  0
   -8.0615  -24.0830   32.6328 H   0  0  0  0  0  0  0  0  0  0  0  0
  -10.1876  -23.7571   33.4492 H   0  0  0  0  0  0  0  0  0  0  0  0
   -9.1396  -22.6254   34.2402 H   0  0  0  0  0  0  0  0  0  0  0  0
  -10.7611  -21.0767   34.9674 H   0  0  0  0  0  0  0  0  0  0  0  0
  -12.4539  -19.3621   34.3977 H   0  0  0  0  0  0  0  0  0  0  0  0
  -13.2204  -19.1561   32.0765 H   0  0  0  0  0  0  0  0  0  0  0  0
  -12.1662  -20.5999   30.3252 H   0  0  0  0  0  0  0  0  0  0  0  0
   -9.9070  -26.2671   27.9508 H   0  0  0  0  0  0  0  0  0  0  0  0
  -10.0968  -25.0716   26.0582 H   0  0  0  0  0  0  0  0  0  0  0  0
  -11.8061  -25.4176   26.2701 H   0  0  0  0  0  0  0  0  0  0  0  0
  -12.0797  -23.0832   26.6751 H   0  0  0  0  0  0  0  0  0  0  0  0
  -10.3209  -22.9068   26.6434 H   0  0  0  0  0  0  0  0  0  0  0  0
  -10.7649  -22.5563   28.8773 H   0  0  0  0  0  0  0  0  0  0  0  0
  -12.1628  -23.7615   30.3782 H   0  0  0  0  0  0  0  0  0  0  0  0
  -13.1032  -23.0458   29.1171 H   0  0  0  0  0  0  0  0  0  0  0  0
  -15.6757  -23.4737   26.0987 H   0  0  0  0  0  0  0  0  0  0  0  0
  -16.6514  -25.7184   25.5225 H   0  0  0  0  0  0  0  0  0  0  0  0
  -15.6873  -27.6760   26.7643 H   0  0  0  0  0  0  0  0  0  0  0  0
  -11.5034  -26.5510   29.8196 H   0  0  0  0  0  0  0  0  0  0  0  0
  -12.1180  -27.0455   28.2693 H   0  0  0  0  0  0  0  0  0  0  0  0
  1  2  2  0
  2  3  1  0
  3  4  1  0
  4  5  1  0
  5  6  1  0
  6  7  2  0
  7  8  1  0
  8  9  2  0
  9 10  1  0
 10 11  2  0
  2 12  1  0
 12 13  1  0
 13 14  1  0
 14 15  1  0
 15 16  1  0
 16 17  1  0
 17 18  1  0
 18 19  1  0
 19 20  2  0
 20 21  1  0
 21 22  2  0
 22 23  1  0
 23 24  2  0
 18 25  1  0
 11  6  1  0
 16 12  1  0
 24 19  1  0
 25 13  1  0
  3 26  1  0
  3 27  1  0
  4 28  1  0
  4 29  1  0
  5 30  1  0
  5 31  1  0
  7 32  1  0
  8 33  1  0
  9 34  1  0
 10 35  1  0
 13 36  1  0
 14 37  1  0
 14 38  1  0
 15 39  1  0
 15 40  1  0
 16 41  1  0
 17 42  1  0
 17 43  1  0
 21 44  1  0
 22 45  1  0
 23 46  1  0
 25 47  1  0
 25 48  1  0
M  END
>  <Energy>  (42) 
65.892324161472729

>  <compound_id>  (42) 
34613

>  <target_id>  (42) 
1

>  <reference_id>  (42) 
54

>  <inspiration_ids>  (42) 
[82, 54]

>  <energy_score>  (42) 
34.2515120890194

>  <distance_score>  (42) 
4.725552419147577

>  <path>  (42) 
/opt/xchem-fragalysis-2/maxwin/BulkDock/SCRATCH/511015/C34613-P54/C34613-P54.minimised.mol

>  <scratch_subdir>  (42) 
/opt/xchem-fragalysis-2/maxwin/BulkDock/SCRATCH/511015/C34613-P54

>  <fragmenstein_runtime>  (42) 
10.140979051589966

>  <fragmenstein_outcome>  (42) 
too moved

>  <fragmenstein_mode>  (42) 
expansion

>  <fragmenstein_error>  (42) 


$$$$
C34614-P82
     RDKit          3D

 46 49  0  0  0  0  0  0  0  0999 V2000
  -16.3990  -20.9045   33.8434 C   0  0  0  0  0  0  0  0  0  0  0  0
  -15.4693  -22.1203   33.9828 C   0  0  0  0  0  0  0  0  0  0  0  0
  -15.9273  -23.0457   33.0186 O   0  0  0  0  0  0  0  0  0  0  0  0
  -16.2981  -24.2391   33.5948 C   0  0  0  0  0  0  0  0  0  0  0  0
  -17.4410  -24.8505   33.1217 C   0  0  0  0  0  0  0  0  0  0  0  0
  -17.7804  -26.0959   33.6368 C   0  0  0  0  0  0  0  0  0  0  0  0
  -16.9805  -26.6740   34.6153 C   0  0  0  0  0  0  0  0  0  0  0  0
  -15.8651  -25.9789   35.0393 C   0  0  0  0  0  0  0  0  0  0  0  0
  -15.5004  -24.7810   34.5350 N   0  0  0  0  0  0  0  0  0  0  0  0
  -14.0110  -21.6030   33.8452 C   0  0  0  0  0  0  0  0  0  0  0  0
  -13.6641  -20.5323   34.3645 O   0  0  0  0  0  0  0  0  0  0  0  0
  -13.1096  -22.2507   33.0693 N   0  0  0  0  0  0  0  0  0  0  0  0
  -12.1024  -23.2615   33.4216 C   0  0  0  0  0  0  0  0  0  0  0  0
  -10.9573  -22.8789   32.4447 C   0  0  0  0  0  0  0  0  0  0  0  0
  -11.5318  -21.7076   31.6378 C   0  0  0  0  0  0  0  0  0  0  0  0
  -13.0070  -22.0227   31.7077 C   0  0  0  0  0  0  0  0  0  0  0  0
  -13.3736  -23.2593   30.9471 C   0  0  0  0  0  0  0  0  0  0  0  0
  -12.7295  -24.4818   31.3928 N   0  0  0  0  0  0  0  0  0  0  0  0
  -11.9037  -25.0748   30.4660 C   0  0  0  0  0  0  0  0  0  0  0  0
  -11.8716  -24.6101   29.1980 N   0  0  0  0  0  0  0  0  0  0  0  0
  -10.9375  -25.0679   28.3660 C   0  0  0  0  0  0  0  0  0  0  0  0
  -10.0233  -25.9966   28.7554 C   0  0  0  0  0  0  0  0  0  0  0  0
  -10.1462  -26.4532   30.0427 C   0  0  0  0  0  0  0  0  0  0  0  0
  -11.0557  -26.0032   30.9005 N   0  0  0  0  0  0  0  0  0  0  0  0
  -12.5108  -24.6199   32.8572 C   0  0  0  0  0  0  0  0  0  0  0  0
  -16.2802  -20.4371   32.8587 H   0  0  0  0  0  0  0  0  0  0  0  0
  -17.4482  -21.2084   33.9288 H   0  0  0  0  0  0  0  0  0  0  0  0
  -16.1967  -20.1474   34.6077 H   0  0  0  0  0  0  0  0  0  0  0  0
  -15.6189  -22.4835   35.0002 H   0  0  0  0  0  0  0  0  0  0  0  0
  -18.0224  -24.3920   32.3321 H   0  0  0  0  0  0  0  0  0  0  0  0
  -18.6552  -26.6187   33.2631 H   0  0  0  0  0  0  0  0  0  0  0  0
  -17.2176  -27.6454   35.0330 H   0  0  0  0  0  0  0  0  0  0  0  0
  -15.2028  -26.3860   35.7997 H   0  0  0  0  0  0  0  0  0  0  0  0
  -11.8543  -23.2729   34.4748 H   0  0  0  0  0  0  0  0  0  0  0  0
   -9.9612  -22.8618   32.8341 H   0  0  0  0  0  0  0  0  0  0  0  0
  -10.6904  -23.6632   31.7459 H   0  0  0  0  0  0  0  0  0  0  0  0
  -11.2750  -20.7865   32.1677 H   0  0  0  0  0  0  0  0  0  0  0  0
  -11.2156  -21.6308   30.5963 H   0  0  0  0  0  0  0  0  0  0  0  0
  -13.7414  -21.2830   31.4570 H   0  0  0  0  0  0  0  0  0  0  0  0
  -13.1051  -22.9708   29.9320 H   0  0  0  0  0  0  0  0  0  0  0  0
  -14.4441  -23.3672   31.0946 H   0  0  0  0  0  0  0  0  0  0  0  0
  -10.9458  -24.6444   27.3683 H   0  0  0  0  0  0  0  0  0  0  0  0
   -9.2561  -26.3594   28.0952 H   0  0  0  0  0  0  0  0  0  0  0  0
   -9.4986  -27.2145   30.4638 H   0  0  0  0  0  0  0  0  0  0  0  0
  -13.4242  -24.8902   33.3635 H   0  0  0  0  0  0  0  0  0  0  0  0
  -11.7489  -25.3653   33.1039 H   0  0  0  0  0  0  0  0  0  0  0  0
  1  2  1  0
  2  3  1  0
  3  4  1  0
  4  5  2  0
  5  6  1  0
  6  7  2  0
  7  8  1  0
  8  9  2  0
  2 10  1  0
 10 11  2  0
 10 12  1  0
 12 13  1  0
 13 14  1  0
 14 15  1  0
 15 16  1  0
 16 17  1  0
 17 18  1  0
 18 19  1  0
 19 20  2  0
 20 21  1  0
 21 22  2  0
 22 23  1  0
 23 24  2  0
 18 25  1  0
  9  4  1  0
 16 12  1  0
 24 19  1  0
 25 13  1  0
  1 26  1  0
  1 27  1  0
  1 28  1  0
  2 29  1  0
  5 30  1  0
  6 31  1  0
  7 32  1  0
  8 33  1  0
 13 34  1  0
 14 35  1  0
 14 36  1  0
 15 37  1  0
 15 38  1  0
 16 39  1  0
 17 40  1  0
 17 41  1  0
 21 42  1  0
 22 43  1  0
 23 44  1  0
 25 45  1  0
 25 46  1  0
M  END
>  <Energy>  (43) 
79.497575809072401

>  <compound_id>  (43) 
34614

>  <target_id>  (43) 
1

>  <reference_id>  (43) 
82

>  <inspiration_ids>  (43) 
[82, 54]

>  <energy_score>  (43) 
13.573296374473898

>  <distance_score>  (43) 
4.6090362125098805

>  <path>  (43) 
/opt/xchem-fragalysis-2/maxwin/BulkDock/SCRATCH/511015/C34614-P82/C34614-P82.minimised.mol

>  <scratch_subdir>  (43) 
/opt/xchem-fragalysis-2/maxwin/BulkDock/SCRATCH/511015/C34614-P82

>  <fragmenstein_runtime>  (43) 
12.141563653945923

>  <fragmenstein_outcome>  (43) 
too moved

>  <fragmenstein_mode>  (43) 
expansion

>  <fragmenstein_error>  (43) 


$$$$
C34614-P54
     RDKit          3D

 46 49  0  0  0  0  0  0  0  0999 V2000
  -13.5837  -24.4193   26.7945 C   0  0  0  0  0  0  0  0  0  0  0  0
  -12.9702  -24.8314   28.1319 C   0  0  0  0  0  0  0  0  0  0  0  0
  -13.7457  -25.9778   28.5371 O   0  0  0  0  0  0  0  0  0  0  0  0
  -13.2722  -26.5103   29.7091 C   0  0  0  0  0  0  0  0  0  0  0  0
  -14.1707  -26.6709   30.7463 C   0  0  0  0  0  0  0  0  0  0  0  0
  -13.7195  -27.2564   31.9145 C   0  0  0  0  0  0  0  0  0  0  0  0
  -12.4406  -27.7812   31.9398 C   0  0  0  0  0  0  0  0  0  0  0  0
  -11.6834  -27.6973   30.7876 C   0  0  0  0  0  0  0  0  0  0  0  0
  -12.0265  -26.9975   29.7027 N   0  0  0  0  0  0  0  0  0  0  0  0
  -13.1467  -23.7032   29.1018 C   0  0  0  0  0  0  0  0  0  0  0  0
  -14.3217  -23.5803   29.4555 O   0  0  0  0  0  0  0  0  0  0  0  0
  -12.2171  -22.9106   29.6951 N   0  0  0  0  0  0  0  0  0  0  0  0
  -11.4056  -23.1416   30.9136 C   0  0  0  0  0  0  0  0  0  0  0  0
  -11.4318  -21.7375   31.5976 C   0  0  0  0  0  0  0  0  0  0  0  0
  -12.0792  -20.8304   30.5363 C   0  0  0  0  0  0  0  0  0  0  0  0
  -11.8099  -21.6134   29.2346 C   0  0  0  0  0  0  0  0  0  0  0  0
  -10.3148  -21.5145   28.9988 C   0  0  0  0  0  0  0  0  0  0  0  0
   -9.5632  -22.7597   29.3140 N   0  0  0  0  0  0  0  0  0  0  0  0
   -9.7266  -23.6319   28.2360 C   0  0  0  0  0  0  0  0  0  0  0  0
  -10.2300  -23.1080   27.1182 N   0  0  0  0  0  0  0  0  0  0  0  0
  -10.6102  -23.9234   26.1500 C   0  0  0  0  0  0  0  0  0  0  0  0
  -10.5139  -25.2858   26.2528 C   0  0  0  0  0  0  0  0  0  0  0  0
   -9.8762  -25.7476   27.3663 C   0  0  0  0  0  0  0  0  0  0  0  0
   -9.4852  -24.9372   28.3627 N   0  0  0  0  0  0  0  0  0  0  0  0
   -9.9224  -23.4311   30.5757 C   0  0  0  0  0  0  0  0  0  0  0  0
  -13.4177  -25.1912   26.0361 H   0  0  0  0  0  0  0  0  0  0  0  0
  -14.6733  -24.3182   26.8794 H   0  0  0  0  0  0  0  0  0  0  0  0
  -13.2034  -23.4608   26.4333 H   0  0  0  0  0  0  0  0  0  0  0  0
  -11.9472  -25.1109   28.1052 H   0  0  0  0  0  0  0  0  0  0  0  0
  -15.1914  -26.3134   30.6462 H   0  0  0  0  0  0  0  0  0  0  0  0
  -14.3891  -27.3770   32.7612 H   0  0  0  0  0  0  0  0  0  0  0  0
  -12.0904  -28.3470   32.7963 H   0  0  0  0  0  0  0  0  0  0  0  0
  -10.7852  -28.2835   30.6634 H   0  0  0  0  0  0  0  0  0  0  0  0
  -11.7714  -23.9639   31.5074 H   0  0  0  0  0  0  0  0  0  0  0  0
  -10.4302  -21.3724   31.8511 H   0  0  0  0  0  0  0  0  0  0  0  0
  -11.9728  -21.6962   32.5373 H   0  0  0  0  0  0  0  0  0  0  0  0
  -13.1497  -20.7595   30.7343 H   0  0  0  0  0  0  0  0  0  0  0  0
  -11.6729  -19.8146   30.5465 H   0  0  0  0  0  0  0  0  0  0  0  0
  -12.3619  -21.2569   28.3753 H   0  0  0  0  0  0  0  0  0  0  0  0
   -9.9900  -20.6926   29.6100 H   0  0  0  0  0  0  0  0  0  0  0  0
  -10.1143  -21.1124   28.0048 H   0  0  0  0  0  0  0  0  0  0  0  0
  -11.0294  -23.3964   25.3054 H   0  0  0  0  0  0  0  0  0  0  0  0
  -10.9468  -25.9760   25.5482 H   0  0  0  0  0  0  0  0  0  0  0  0
   -9.7296  -26.8117   27.5162 H   0  0  0  0  0  0  0  0  0  0  0  0
   -9.7640  -24.5153   30.5682 H   0  0  0  0  0  0  0  0  0  0  0  0
   -9.2567  -23.0736   31.3710 H   0  0  0  0  0  0  0  0  0  0  0  0
  1  2  1  0
  2  3  1  0
  3  4  1  0
  4  5  2  0
  5  6  1  0
  6  7  2  0
  7  8  1  0
  8  9  2  0
  2 10  1  0
 10 11  2  0
 10 12  1  0
 12 13  1  0
 13 14  1  0
 14 15  1  0
 15 16  1  0
 16 17  1  0
 17 18  1  0
 18 19  1  0
 19 20  2  0
 20 21  1  0
 21 22  2  0
 22 23  1  0
 23 24  2  0
 18 25  1  0
  9  4  1  0
 16 12  1  0
 24 19  1  0
 25 13  1  0
  1 26  1  0
  1 27  1  0
  1 28  1  0
  2 29  1  0
  5 30  1  0
  6 31  1  0
  7 32  1  0
  8 33  1  0
 13 34  1  0
 14 35  1  0
 14 36  1  0
 15 37  1  0
 15 38  1  0
 16 39  1  0
 17 40  1  0
 17 41  1  0
 21 42  1  0
 22 43  1  0
 23 44  1  0
 25 45  1  0
 25 46  1  0
M  END
>  <Energy>  (44) 
90.279108887303735

>  <compound_id>  (44) 
34614

>  <target_id>  (44) 
1

>  <reference_id>  (44) 
54

>  <inspiration_ids>  (44) 
[82, 54]

>  <energy_score>  (44) 
42.68302979798915

>  <distance_score>  (44) 
3.3945615395161153

>  <path>  (44) 
/opt/xchem-fragalysis-2/maxwin/BulkDock/SCRATCH/511015/C34614-P54/C34614-P54.minimised.mol

>  <scratch_subdir>  (44) 
/opt/xchem-fragalysis-2/maxwin/BulkDock/SCRATCH/511015/C34614-P54

>  <fragmenstein_runtime>  (44) 
5.991901159286499

>  <fragmenstein_outcome>  (44) 
too moved

>  <fragmenstein_mode>  (44) 
expansion

>  <fragmenstein_error>  (44) 


$$$$
C34617-P82
     RDKit          3D

 46 49  0  0  0  0  0  0  0  0999 V2000
  -11.4499  -23.7329   30.4265 O   0  0  0  0  0  0  0  0  0  0  0  0
  -11.1073  -24.1618   31.4949 C   0  0  0  0  0  0  0  0  0  0  0  0
  -10.3544  -25.5158   31.5681 C   0  0  0  0  0  0  0  0  0  0  0  0
  -10.5687  -26.3841   30.4557 O   0  0  0  0  0  0  0  0  0  0  0  0
  -10.0740  -25.8504   29.2330 C   0  0  0  0  0  0  0  0  0  0  0  0
  -11.1728  -25.6496   28.2398 C   0  0  0  0  0  0  0  0  0  0  0  0
  -11.3245  -24.4505   27.5439 C   0  0  0  0  0  0  0  0  0  0  0  0
  -12.3275  -24.3273   26.5942 C   0  0  0  0  0  0  0  0  0  0  0  0
  -13.1513  -25.4163   26.3726 C   0  0  0  0  0  0  0  0  0  0  0  0
  -13.0539  -26.5917   27.0316 N   0  0  0  0  0  0  0  0  0  0  0  0
  -12.0603  -26.6730   27.9474 C   0  0  0  0  0  0  0  0  0  0  0  0
  -11.2775  -23.6277   32.8036 N   0  0  0  0  0  0  0  0  0  0  0  0
  -11.8434  -22.2946   33.2663 C   0  0  0  0  0  0  0  0  0  0  0  0
  -13.1945  -21.6665   32.8973 C   0  0  0  0  0  0  0  0  0  0  0  0
  -13.5317  -21.9947   31.4558 C   0  0  0  0  0  0  0  0  0  0  0  0
  -14.1026  -23.3803   31.5864 C   0  0  0  0  0  0  0  0  0  0  0  0
  -14.0241  -23.6817   33.0661 C   0  0  0  0  0  0  0  0  0  0  0  0
  -12.5782  -24.1425   33.4212 C   0  0  0  0  0  0  0  0  0  0  0  0
  -14.2107  -22.3599   33.6568 N   0  0  0  0  0  0  0  0  0  0  0  0
  -15.5077  -21.8651   33.4689 C   0  0  0  0  0  0  0  0  0  0  0  0
  -16.5212  -22.7383   33.5307 N   0  0  0  0  0  0  0  0  0  0  0  0
  -17.6952  -22.3752   32.9958 C   0  0  0  0  0  0  0  0  0  0  0  0
  -17.9257  -21.1379   32.4608 C   0  0  0  0  0  0  0  0  0  0  0  0
  -16.8738  -20.2660   32.5474 C   0  0  0  0  0  0  0  0  0  0  0  0
  -15.6673  -20.5945   33.0419 N   0  0  0  0  0  0  0  0  0  0  0  0
   -9.2833  -25.3138   31.6774 H   0  0  0  0  0  0  0  0  0  0  0  0
  -10.6717  -26.0623   32.4598 H   0  0  0  0  0  0  0  0  0  0  0  0
   -9.3723  -26.5634   28.8049 H   0  0  0  0  0  0  0  0  0  0  0  0
   -9.4918  -24.9430   29.3871 H   0  0  0  0  0  0  0  0  0  0  0  0
  -10.6833  -23.6007   27.7571 H   0  0  0  0  0  0  0  0  0  0  0  0
  -12.4718  -23.3993   26.0503 H   0  0  0  0  0  0  0  0  0  0  0  0
  -13.9499  -25.3584   25.6378 H   0  0  0  0  0  0  0  0  0  0  0  0
  -11.9904  -27.6253   28.4634 H   0  0  0  0  0  0  0  0  0  0  0  0
  -11.7109  -22.1854   34.3436 H   0  0  0  0  0  0  0  0  0  0  0  0
  -11.1536  -21.5997   32.7702 H   0  0  0  0  0  0  0  0  0  0  0  0
  -13.1472  -20.6325   33.2141 H   0  0  0  0  0  0  0  0  0  0  0  0
  -12.7000  -21.8903   30.7605 H   0  0  0  0  0  0  0  0  0  0  0  0
  -14.3619  -21.3953   31.0792 H   0  0  0  0  0  0  0  0  0  0  0  0
  -13.6021  -24.1189   30.9713 H   0  0  0  0  0  0  0  0  0  0  0  0
  -15.1495  -23.2844   31.2916 H   0  0  0  0  0  0  0  0  0  0  0  0
  -14.7523  -24.3941   33.4530 H   0  0  0  0  0  0  0  0  0  0  0  0
  -12.5623  -25.2085   33.1897 H   0  0  0  0  0  0  0  0  0  0  0  0
  -12.4164  -24.1102   34.4924 H   0  0  0  0  0  0  0  0  0  0  0  0
  -18.4660  -23.1396   33.0157 H   0  0  0  0  0  0  0  0  0  0  0  0
  -18.8834  -20.8595   32.0463 H   0  0  0  0  0  0  0  0  0  0  0  0
  -16.9759  -19.2415   32.2058 H   0  0  0  0  0  0  0  0  0  0  0  0
  1  2  2  0
  2  3  1  0
  3  4  1  0
  4  5  1  0
  5  6  1  0
  6  7  2  0
  7  8  1  0
  8  9  2  0
  9 10  1  0
 10 11  2  0
  2 12  1  0
 12 13  1  0
 13 14  1  0
 14 15  1  0
 15 16  1  0
 16 17  1  0
 17 18  1  0
 17 19  1  0
 19 20  1  0
 20 21  2  0
 21 22  1  0
 22 23  2  0
 23 24  1  0
 24 25  2  0
 11  6  1  0
 18 12  1  0
 25 20  1  0
 19 14  1  0
  3 26  1  0
  3 27  1  0
  5 28  1  0
  5 29  1  0
  7 30  1  0
  8 31  1  0
  9 32  1  0
 11 33  1  0
 13 34  1  0
 13 35  1  0
 14 36  1  0
 15 37  1  0
 15 38  1  0
 16 39  1  0
 16 40  1  0
 17 41  1  0
 18 42  1  0
 18 43  1  0
 22 44  1  0
 23 45  1  0
 24 46  1  0
M  END
>  <Energy>  (45) 
137.19964852133322

>  <compound_id>  (45) 
34617

>  <target_id>  (45) 
1

>  <reference_id>  (45) 
82

>  <inspiration_ids>  (45) 
[82, 54]

>  <energy_score>  (45) 
52.96762817636272

>  <distance_score>  (45) 
5.988669617632752

>  <path>  (45) 
/opt/xchem-fragalysis-2/maxwin/BulkDock/SCRATCH/511015/C34617-P82/C34617-P82.minimised.mol

>  <scratch_subdir>  (45) 
/opt/xchem-fragalysis-2/maxwin/BulkDock/SCRATCH/511015/C34617-P82

>  <fragmenstein_runtime>  (45) 
7.48856520652771

>  <fragmenstein_outcome>  (45) 
too moved

>  <fragmenstein_mode>  (45) 
expansion

>  <fragmenstein_error>  (45) 


$$$$
C34617-P54
     RDKit          3D

 46 49  0  0  0  0  0  0  0  0999 V2000
  -12.1269  -29.5444   28.2303 O   0  0  0  0  0  0  0  0  0  0  0  0
  -13.0088  -29.3456   29.0236 C   0  0  0  0  0  0  0  0  0  0  0  0
  -14.1865  -30.3479   29.1639 C   0  0  0  0  0  0  0  0  0  0  0  0
  -15.0174  -30.2693   30.3168 O   0  0  0  0  0  0  0  0  0  0  0  0
  -14.3244  -30.5743   31.5352 C   0  0  0  0  0  0  0  0  0  0  0  0
  -14.4369  -29.4513   32.5391 C   0  0  0  0  0  0  0  0  0  0  0  0
  -15.4577  -28.4969   32.4924 C   0  0  0  0  0  0  0  0  0  0  0  0
  -15.5604  -27.5414   33.4944 C   0  0  0  0  0  0  0  0  0  0  0  0
  -14.6478  -27.5887   34.5324 C   0  0  0  0  0  0  0  0  0  0  0  0
  -13.6236  -28.4664   34.6046 N   0  0  0  0  0  0  0  0  0  0  0  0
  -13.5427  -29.3750   33.6044 C   0  0  0  0  0  0  0  0  0  0  0  0
  -13.1585  -28.3245   30.0098 N   0  0  0  0  0  0  0  0  0  0  0  0
  -12.2091  -27.2329   30.4556 C   0  0  0  0  0  0  0  0  0  0  0  0
  -11.4713  -26.1867   29.5703 C   0  0  0  0  0  0  0  0  0  0  0  0
  -11.0821  -26.7260   28.1820 C   0  0  0  0  0  0  0  0  0  0  0  0
  -12.3864  -26.6300   27.3874 C   0  0  0  0  0  0  0  0  0  0  0  0
  -13.3486  -26.0218   28.4102 C   0  0  0  0  0  0  0  0  0  0  0  0
  -13.9282  -27.1052   29.4074 C   0  0  0  0  0  0  0  0  0  0  0  0
  -12.5127  -25.2175   29.2838 N   0  0  0  0  0  0  0  0  0  0  0  0
  -12.0173  -23.9965   28.8934 C   0  0  0  0  0  0  0  0  0  0  0  0
  -11.4334  -23.2623   29.8495 N   0  0  0  0  0  0  0  0  0  0  0  0
  -11.0069  -22.0360   29.5176 C   0  0  0  0  0  0  0  0  0  0  0  0
  -11.0844  -21.5401   28.2460 C   0  0  0  0  0  0  0  0  0  0  0  0
  -11.6487  -22.3823   27.3220 C   0  0  0  0  0  0  0  0  0  0  0  0
  -12.1463  -23.5929   27.6260 N   0  0  0  0  0  0  0  0  0  0  0  0
  -13.7771  -31.3630   29.0947 H   0  0  0  0  0  0  0  0  0  0  0  0
  -14.8315  -30.1928   28.2922 H   0  0  0  0  0  0  0  0  0  0  0  0
  -14.8023  -31.4637   31.9610 H   0  0  0  0  0  0  0  0  0  0  0  0
  -13.2710  -30.8182   31.3513 H   0  0  0  0  0  0  0  0  0  0  0  0
  -16.1856  -28.5108   31.6846 H   0  0  0  0  0  0  0  0  0  0  0  0
  -16.3513  -26.7997   33.4833 H   0  0  0  0  0  0  0  0  0  0  0  0
  -14.7185  -26.8869   35.3593 H   0  0  0  0  0  0  0  0  0  0  0  0
  -12.7222  -30.0828   33.6982 H   0  0  0  0  0  0  0  0  0  0  0  0
  -12.6253  -26.7616   31.3616 H   0  0  0  0  0  0  0  0  0  0  0  0
  -11.3929  -27.8524   30.8508 H   0  0  0  0  0  0  0  0  0  0  0  0
  -10.6317  -25.7609   30.1280 H   0  0  0  0  0  0  0  0  0  0  0  0
  -10.6491  -27.7264   28.2129 H   0  0  0  0  0  0  0  0  0  0  0  0
  -10.3335  -26.0727   27.7158 H   0  0  0  0  0  0  0  0  0  0  0  0
  -12.7382  -27.5772   26.9763 H   0  0  0  0  0  0  0  0  0  0  0  0
  -12.2446  -25.9608   26.5309 H   0  0  0  0  0  0  0  0  0  0  0  0
  -14.1690  -25.4552   27.9561 H   0  0  0  0  0  0  0  0  0  0  0  0
  -14.7379  -27.5843   28.8351 H   0  0  0  0  0  0  0  0  0  0  0  0
  -14.4657  -26.6105   30.2347 H   0  0  0  0  0  0  0  0  0  0  0  0
  -10.5982  -21.4521   30.3357 H   0  0  0  0  0  0  0  0  0  0  0  0
  -10.7420  -20.5472   27.9957 H   0  0  0  0  0  0  0  0  0  0  0  0
  -11.7617  -22.0847   26.2837 H   0  0  0  0  0  0  0  0  0  0  0  0
  1  2  2  0
  2  3  1  0
  3  4  1  0
  4  5  1  0
  5  6  1  0
  6  7  2  0
  7  8  1  0
  8  9  2  0
  9 10  1  0
 10 11  2  0
  2 12  1  0
 12 13  1  0
 13 14  1  0
 14 15  1  0
 15 16  1  0
 16 17  1  0
 17 18  1  0
 17 19  1  0
 19 20  1  0
 20 21  2  0
 21 22  1  0
 22 23  2  0
 23 24  1  0
 24 25  2  0
 11  6  1  0
 18 12  1  0
 25 20  1  0
 19 14  1  0
  3 26  1  0
  3 27  1  0
  5 28  1  0
  5 29  1  0
  7 30  1  0
  8 31  1  0
  9 32  1  0
 11 33  1  0
 13 34  1  0
 13 35  1  0
 14 36  1  0
 15 37  1  0
 15 38  1  0
 16 39  1  0
 16 40  1  0
 17 41  1  0
 18 42  1  0
 18 43  1  0
 22 44  1  0
 23 45  1  0
 24 46  1  0
M  END
>  <Energy>  (46) 
125.14726612805592

>  <compound_id>  (46) 
34617

>  <target_id>  (46) 
1

>  <reference_id>  (46) 
54

>  <inspiration_ids>  (46) 
[82, 54]

>  <energy_score>  (46) 
40.91524578308312

>  <distance_score>  (46) 
4.967318029545101

>  <path>  (46) 
/opt/xchem-fragalysis-2/maxwin/BulkDock/SCRATCH/511015/C34617-P54/C34617-P54.minimised.mol

>  <scratch_subdir>  (46) 
/opt/xchem-fragalysis-2/maxwin/BulkDock/SCRATCH/511015/C34617-P54

>  <fragmenstein_runtime>  (46) 
10.097097873687744

>  <fragmenstein_outcome>  (46) 
too moved

>  <fragmenstein_mode>  (46) 
expansion

>  <fragmenstein_error>  (46) 


$$$$
C34618-P82
     RDKit          3D

 45 48  0  0  0  0  0  0  0  0999 V2000
  -13.9605  -19.7288   35.1286 O   0  0  0  0  0  0  0  0  0  0  0  0
  -13.8232  -20.5340   34.2488 C   0  0  0  0  0  0  0  0  0  0  0  0
  -12.5006  -20.8851   33.5038 C   0  0  0  0  0  0  0  0  0  0  0  0
  -12.2688  -22.3961   33.9206 C   0  0  0  0  0  0  0  0  0  0  0  0
  -11.4629  -23.4819   33.3240 C   0  0  0  0  0  0  0  0  0  0  0  0
  -11.5953  -24.8200   33.6422 C   0  0  0  0  0  0  0  0  0  0  0  0
  -10.6846  -25.7626   33.1817 C   0  0  0  0  0  0  0  0  0  0  0  0
   -9.6803  -25.3632   32.3580 C   0  0  0  0  0  0  0  0  0  0  0  0
   -9.5713  -24.0972   32.0025 N   0  0  0  0  0  0  0  0  0  0  0  0
  -10.4627  -23.2083   32.4837 C   0  0  0  0  0  0  0  0  0  0  0  0
  -14.7332  -21.4556   33.7004 N   0  0  0  0  0  0  0  0  0  0  0  0
  -16.0741  -21.8067   34.0828 C   0  0  0  0  0  0  0  0  0  0  0  0
  -16.1663  -23.2075   33.2000 C   0  0  0  0  0  0  0  0  0  0  0  0
  -17.6206  -23.2500   32.7384 C   0  0  0  0  0  0  0  0  0  0  0  0
  -17.6273  -22.1147   31.7012 C   0  0  0  0  0  0  0  0  0  0  0  0
  -16.1310  -21.7884   31.4709 C   0  0  0  0  0  0  0  0  0  0  0  0
  -15.5096  -20.8044   32.4768 C   0  0  0  0  0  0  0  0  0  0  0  0
  -15.4760  -22.9853   31.8679 N   0  0  0  0  0  0  0  0  0  0  0  0
  -14.1324  -23.0918   31.4749 C   0  0  0  0  0  0  0  0  0  0  0  0
  -13.5452  -22.0869   30.7821 N   0  0  0  0  0  0  0  0  0  0  0  0
  -12.4631  -22.3423   29.9854 C   0  0  0  0  0  0  0  0  0  0  0  0
  -11.9433  -23.5773   29.7902 C   0  0  0  0  0  0  0  0  0  0  0  0
  -12.4932  -24.4942   30.6281 C   0  0  0  0  0  0  0  0  0  0  0  0
  -13.4769  -24.2342   31.5401 N   0  0  0  0  0  0  0  0  0  0  0  0
  -12.5210  -20.8716   32.4327 H   0  0  0  0  0  0  0  0  0  0  0  0
  -11.6995  -20.2324   33.8547 H   0  0  0  0  0  0  0  0  0  0  0  0
  -13.2208  -22.9170   34.0166 H   0  0  0  0  0  0  0  0  0  0  0  0
  -11.8053  -22.2836   34.8924 H   0  0  0  0  0  0  0  0  0  0  0  0
  -12.4672  -25.1295   34.1928 H   0  0  0  0  0  0  0  0  0  0  0  0
  -10.7570  -26.8032   33.4275 H   0  0  0  0  0  0  0  0  0  0  0  0
   -8.9476  -26.0413   31.9447 H   0  0  0  0  0  0  0  0  0  0  0  0
  -10.3905  -22.1656   32.2060 H   0  0  0  0  0  0  0  0  0  0  0  0
  -16.0488  -22.1399   35.1262 H   0  0  0  0  0  0  0  0  0  0  0  0
  -16.9127  -21.0926   34.0834 H   0  0  0  0  0  0  0  0  0  0  0  0
  -15.8107  -24.0893   33.7397 H   0  0  0  0  0  0  0  0  0  0  0  0
  -18.3416  -23.0871   33.5448 H   0  0  0  0  0  0  0  0  0  0  0  0
  -17.8531  -24.2048   32.2543 H   0  0  0  0  0  0  0  0  0  0  0  0
  -18.0915  -22.4736   30.7751 H   0  0  0  0  0  0  0  0  0  0  0  0
  -18.1896  -21.2378   32.0374 H   0  0  0  0  0  0  0  0  0  0  0  0
  -15.9946  -21.4980   30.4395 H   0  0  0  0  0  0  0  0  0  0  0  0
  -14.7537  -20.3284   31.9087 H   0  0  0  0  0  0  0  0  0  0  0  0
  -16.1372  -19.9404   32.7565 H   0  0  0  0  0  0  0  0  0  0  0  0
  -12.0656  -21.4911   29.4436 H   0  0  0  0  0  0  0  0  0  0  0  0
  -11.1369  -23.7997   29.1143 H   0  0  0  0  0  0  0  0  0  0  0  0
  -12.1271  -25.5134   30.6395 H   0  0  0  0  0  0  0  0  0  0  0  0
  1  2  2  0
  2  3  1  0
  3  4  1  0
  4  5  1  0
  5  6  2  0
  6  7  1  0
  7  8  2  0
  8  9  1  0
  9 10  2  0
  2 11  1  0
 11 12  1  0
 12 13  1  0
 13 14  1  0
 14 15  1  0
 15 16  1  0
 16 17  1  0
 16 18  1  0
 18 19  1  0
 19 20  2  0
 20 21  1  0
 21 22  2  0
 22 23  1  0
 23 24  2  0
 10  5  1  0
 17 11  1  0
 24 19  1  0
 18 13  1  0
  3 25  1  0
  3 26  1  0
  4 27  1  0
  4 28  1  0
  6 29  1  0
  7 30  1  0
  8 31  1  0
 10 32  1  0
 12 33  1  0
 12 34  1  0
 13 35  1  0
 14 36  1  0
 14 37  1  0
 15 38  1  0
 15 39  1  0
 16 40  1  0
 17 41  1  0
 17 42  1  0
 21 43  1  0
 22 44  1  0
 23 45  1  0
M  END
>  <Energy>  (47) 
171.19261989697131

>  <compound_id>  (47) 
34618

>  <target_id>  (47) 
1

>  <reference_id>  (47) 
82

>  <inspiration_ids>  (47) 
[82, 54]

>  <energy_score>  (47) 
130.57692677476868

>  <distance_score>  (47) 
3.960955722196787

>  <path>  (47) 
/opt/xchem-fragalysis-2/maxwin/BulkDock/SCRATCH/511015/C34618-P82/C34618-P82.minimised.mol

>  <scratch_subdir>  (47) 
/opt/xchem-fragalysis-2/maxwin/BulkDock/SCRATCH/511015/C34618-P82

>  <fragmenstein_runtime>  (47) 
6.3664796352386475

>  <fragmenstein_outcome>  (47) 
too moved

>  <fragmenstein_mode>  (47) 
expansion

>  <fragmenstein_error>  (47) 


$$$$
C34618-P54
     RDKit          3D

 45 48  0  0  0  0  0  0  0  0999 V2000
  -14.4336  -26.9706   26.7590 O   0  0  0  0  0  0  0  0  0  0  0  0
  -13.6154  -27.7422   27.1864 C   0  0  0  0  0  0  0  0  0  0  0  0
  -14.0763  -29.0878   27.7438 C   0  0  0  0  0  0  0  0  0  0  0  0
  -15.1562  -28.9197   28.8277 C   0  0  0  0  0  0  0  0  0  0  0  0
  -14.5712  -28.5698   30.1733 C   0  0  0  0  0  0  0  0  0  0  0  0
  -13.8560  -29.5221   30.9000 C   0  0  0  0  0  0  0  0  0  0  0  0
  -13.2097  -29.1563   32.0702 C   0  0  0  0  0  0  0  0  0  0  0  0
  -13.2616  -27.8357   32.4598 C   0  0  0  0  0  0  0  0  0  0  0  0
  -13.9553  -26.8835   31.8002 N   0  0  0  0  0  0  0  0  0  0  0  0
  -14.6363  -27.2849   30.7006 C   0  0  0  0  0  0  0  0  0  0  0  0
  -12.1876  -27.6316   27.2805 N   0  0  0  0  0  0  0  0  0  0  0  0
  -11.2220  -26.5396   26.7605 C   0  0  0  0  0  0  0  0  0  0  0  0
  -11.3340  -24.9865   27.0469 C   0  0  0  0  0  0  0  0  0  0  0  0
  -12.8001  -24.5358   27.0129 C   0  0  0  0  0  0  0  0  0  0  0  0
  -13.2807  -24.8818   28.4298 C   0  0  0  0  0  0  0  0  0  0  0  0
  -12.0455  -25.5450   29.0755 C   0  0  0  0  0  0  0  0  0  0  0  0
  -11.7919  -27.0282   28.6308 C   0  0  0  0  0  0  0  0  0  0  0  0
  -10.9347  -24.8252   28.4500 N   0  0  0  0  0  0  0  0  0  0  0  0
  -10.8171  -23.5215   28.9319 C   0  0  0  0  0  0  0  0  0  0  0  0
  -10.9564  -23.3279   30.2530 N   0  0  0  0  0  0  0  0  0  0  0  0
  -11.1323  -22.0671   30.6866 C   0  0  0  0  0  0  0  0  0  0  0  0
  -11.1613  -20.9859   29.8494 C   0  0  0  0  0  0  0  0  0  0  0  0
  -10.9312  -21.2711   28.5305 C   0  0  0  0  0  0  0  0  0  0  0  0
  -10.7355  -22.5133   28.0551 N   0  0  0  0  0  0  0  0  0  0  0  0
  -14.5035  -29.6357   26.8945 H   0  0  0  0  0  0  0  0  0  0  0  0
  -13.2266  -29.6789   28.1034 H   0  0  0  0  0  0  0  0  0  0  0  0
  -15.8978  -28.1670   28.5341 H   0  0  0  0  0  0  0  0  0  0  0  0
  -15.7065  -29.8635   28.9326 H   0  0  0  0  0  0  0  0  0  0  0  0
  -13.7843  -30.5503   30.5526 H   0  0  0  0  0  0  0  0  0  0  0  0
  -12.6702  -29.8896   32.6572 H   0  0  0  0  0  0  0  0  0  0  0  0
  -12.7360  -27.5133   33.3505 H   0  0  0  0  0  0  0  0  0  0  0  0
  -15.2206  -26.5075   30.2142 H   0  0  0  0  0  0  0  0  0  0  0  0
  -10.1855  -26.8911   26.8968 H   0  0  0  0  0  0  0  0  0  0  0  0
  -11.3888  -26.6222   25.6782 H   0  0  0  0  0  0  0  0  0  0  0  0
  -10.6928  -24.4406   26.3464 H   0  0  0  0  0  0  0  0  0  0  0  0
  -13.3679  -25.0012   26.2066 H   0  0  0  0  0  0  0  0  0  0  0  0
  -12.8771  -23.4555   26.8491 H   0  0  0  0  0  0  0  0  0  0  0  0
  -14.1870  -25.4792   28.4702 H   0  0  0  0  0  0  0  0  0  0  0  0
  -13.5222  -23.9465   28.9458 H   0  0  0  0  0  0  0  0  0  0  0  0
  -12.0443  -25.4985   30.1690 H   0  0  0  0  0  0  0  0  0  0  0  0
  -10.7654  -27.3477   28.8619 H   0  0  0  0  0  0  0  0  0  0  0  0
  -12.3534  -27.6271   29.3454 H   0  0  0  0  0  0  0  0  0  0  0  0
  -11.2699  -21.9562   31.7589 H   0  0  0  0  0  0  0  0  0  0  0  0
  -11.3075  -19.9766   30.2093 H   0  0  0  0  0  0  0  0  0  0  0  0
  -10.9070  -20.4826   27.7873 H   0  0  0  0  0  0  0  0  0  0  0  0
  1  2  2  0
  2  3  1  0
  3  4  1  0
  4  5  1  0
  5  6  2  0
  6  7  1  0
  7  8  2  0
  8  9  1  0
  9 10  2  0
  2 11  1  0
 11 12  1  0
 12 13  1  0
 13 14  1  0
 14 15  1  0
 15 16  1  0
 16 17  1  0
 16 18  1  0
 18 19  1  0
 19 20  2  0
 20 21  1  0
 21 22  2  0
 22 23  1  0
 23 24  2  0
 10  5  1  0
 17 11  1  0
 24 19  1  0
 18 13  1  0
  3 25  1  0
  3 26  1  0
  4 27  1  0
  4 28  1  0
  6 29  1  0
  7 30  1  0
  8 31  1  0
 10 32  1  0
 12 33  1  0
 12 34  1  0
 13 35  1  0
 14 36  1  0
 14 37  1  0
 15 38  1  0
 15 39  1  0
 16 40  1  0
 17 41  1  0
 17 42  1  0
 21 43  1  0
 22 44  1  0
 23 45  1  0
M  END
>  <Energy>  (48) 
88.604551589863021

>  <compound_id>  (48) 
34618

>  <target_id>  (48) 
1

>  <reference_id>  (48) 
54

>  <inspiration_ids>  (48) 
[82, 54]

>  <energy_score>  (48) 
47.98885846765742

>  <distance_score>  (48) 
5.260579489195306

>  <path>  (48) 
/opt/xchem-fragalysis-2/maxwin/BulkDock/SCRATCH/511015/C34618-P54/C34618-P54.minimised.mol

>  <scratch_subdir>  (48) 
/opt/xchem-fragalysis-2/maxwin/BulkDock/SCRATCH/511015/C34618-P54

>  <fragmenstein_runtime>  (48) 
7.425401926040649

>  <fragmenstein_outcome>  (48) 
too moved

>  <fragmenstein_mode>  (48) 
expansion

>  <fragmenstein_error>  (48) 


$$$$
C34619-P82
     RDKit          3D

 39 42  0  0  0  0  0  0  0  0999 V2000
  -10.8126  -26.2613   32.8086 O   0  0  0  0  0  0  0  0  0  0  0  0
  -11.1850  -25.5526   31.9236 C   0  0  0  0  0  0  0  0  0  0  0  0
  -11.3282  -26.0632   30.5304 C   0  0  0  0  0  0  0  0  0  0  0  0
  -12.2923  -25.7253   29.5807 C   0  0  0  0  0  0  0  0  0  0  0  0
  -12.2180  -26.0915   28.2395 C   0  0  0  0  0  0  0  0  0  0  0  0
  -11.0040  -26.5328   27.8314 C   0  0  0  0  0  0  0  0  0  0  0  0
   -9.9704  -26.6802   28.6895 N   0  0  0  0  0  0  0  0  0  0  0  0
  -10.1889  -26.5941   30.0258 C   0  0  0  0  0  0  0  0  0  0  0  0
  -11.4545  -24.2044   31.9095 N   0  0  0  0  0  0  0  0  0  0  0  0
  -11.2750  -23.2018   32.9111 C   0  0  0  0  0  0  0  0  0  0  0  0
  -11.5622  -21.7519   32.3970 C   0  0  0  0  0  0  0  0  0  0  0  0
  -12.5106  -21.1866   33.4712 C   0  0  0  0  0  0  0  0  0  0  0  0
  -13.8743  -21.7431   33.0317 C   0  0  0  0  0  0  0  0  0  0  0  0
  -13.5261  -22.5757   31.7714 C   0  0  0  0  0  0  0  0  0  0  0  0
  -12.9362  -23.9474   32.2462 C   0  0  0  0  0  0  0  0  0  0  0  0
  -12.4344  -21.7747   31.2032 N   0  0  0  0  0  0  0  0  0  0  0  0
  -11.9586  -22.2002   29.9601 C   0  0  0  0  0  0  0  0  0  0  0  0
  -12.3130  -21.5700   28.8622 N   0  0  0  0  0  0  0  0  0  0  0  0
  -11.9156  -22.0984   27.6649 C   0  0  0  0  0  0  0  0  0  0  0  0
  -11.2417  -23.2308   27.4474 C   0  0  0  0  0  0  0  0  0  0  0  0
  -10.7165  -23.6242   28.5983 C   0  0  0  0  0  0  0  0  0  0  0  0
  -11.0795  -23.1611   29.8111 N   0  0  0  0  0  0  0  0  0  0  0  0
  -13.1010  -25.0603   29.8348 H   0  0  0  0  0  0  0  0  0  0  0  0
  -13.0000  -25.8416   27.5359 H   0  0  0  0  0  0  0  0  0  0  0  0
  -10.7852  -26.7175   26.7857 H   0  0  0  0  0  0  0  0  0  0  0  0
   -9.3850  -26.8902   30.6887 H   0  0  0  0  0  0  0  0  0  0  0  0
  -11.5766  -23.4742   33.9357 H   0  0  0  0  0  0  0  0  0  0  0  0
  -10.1843  -23.2666   32.9738 H   0  0  0  0  0  0  0  0  0  0  0  0
  -10.6835  -21.1229   32.2486 H   0  0  0  0  0  0  0  0  0  0  0  0
  -12.4809  -20.1007   33.5339 H   0  0  0  0  0  0  0  0  0  0  0  0
  -12.2318  -21.5008   34.4737 H   0  0  0  0  0  0  0  0  0  0  0  0
  -14.3613  -22.3439   33.8044 H   0  0  0  0  0  0  0  0  0  0  0  0
  -14.5597  -20.9278   32.7790 H   0  0  0  0  0  0  0  0  0  0  0  0
  -14.4093  -22.6691   31.1397 H   0  0  0  0  0  0  0  0  0  0  0  0
  -13.4694  -24.6395   31.6342 H   0  0  0  0  0  0  0  0  0  0  0  0
  -13.2409  -24.2804   33.2551 H   0  0  0  0  0  0  0  0  0  0  0  0
  -12.0626  -21.5091   26.7814 H   0  0  0  0  0  0  0  0  0  0  0  0
  -10.9839  -23.6333   26.4870 H   0  0  0  0  0  0  0  0  0  0  0  0
   -9.9335  -24.3676   28.6053 H   0  0  0  0  0  0  0  0  0  0  0  0
  1  2  2  0
  2  3  1  0
  3  4  2  0
  4  5  1  0
  5  6  2  0
  6  7  1  0
  7  8  2  0
  2  9  1  0
  9 10  1  0
 10 11  1  0
 11 12  1  0
 12 13  1  0
 13 14  1  0
 14 15  1  0
 14 16  1  0
 16 17  1  0
 17 18  2  0
 18 19  1  0
 19 20  2  0
 20 21  1  0
 21 22  2  0
  8  3  1  0
 15  9  1  0
 22 17  1  0
 16 11  1  0
  4 23  1  0
  5 24  1  0
  6 25  1  0
  8 26  1  0
 10 27  1  0
 10 28  1  0
 11 29  1  0
 12 30  1  0
 12 31  1  0
 13 32  1  0
 13 33  1  0
 14 34  1  0
 15 35  1  0
 15 36  1  0
 19 37  1  0
 20 38  1  0
 21 39  1  0
M  END
>  <Energy>  (49) 
172.13803382814496

>  <compound_id>  (49) 
34619

>  <target_id>  (49) 
1

>  <reference_id>  (49) 
82

>  <inspiration_ids>  (49) 
[82, 54]

>  <energy_score>  (49) 
113.3718345229808

>  <distance_score>  (49) 
2.6026961616486832

>  <path>  (49) 
/opt/xchem-fragalysis-2/maxwin/BulkDock/SCRATCH/511015/C34619-P82/C34619-P82.minimised.mol

>  <scratch_subdir>  (49) 
/opt/xchem-fragalysis-2/maxwin/BulkDock/SCRATCH/511015/C34619-P82

>  <fragmenstein_runtime>  (49) 
4.866077184677124

>  <fragmenstein_outcome>  (49) 
too moved

>  <fragmenstein_mode>  (49) 
expansion

>  <fragmenstein_error>  (49) 


$$$$
C34619-P54
     RDKit          3D

 39 42  0  0  0  0  0  0  0  0999 V2000
  -11.7276  -26.6606   31.9473 O   0  0  0  0  0  0  0  0  0  0  0  0
  -11.5866  -26.0152   30.9410 C   0  0  0  0  0  0  0  0  0  0  0  0
  -12.3282  -26.5504   29.7752 C   0  0  0  0  0  0  0  0  0  0  0  0
  -12.9497  -25.7991   28.7828 C   0  0  0  0  0  0  0  0  0  0  0  0
  -13.6170  -26.4491   27.7481 C   0  0  0  0  0  0  0  0  0  0  0  0
  -13.6269  -27.8329   27.7353 C   0  0  0  0  0  0  0  0  0  0  0  0
  -13.0312  -28.5939   28.6739 N   0  0  0  0  0  0  0  0  0  0  0  0
  -12.4074  -27.9370   29.6794 C   0  0  0  0  0  0  0  0  0  0  0  0
  -10.7595  -24.8947   30.6723 N   0  0  0  0  0  0  0  0  0  0  0  0
   -9.7174  -24.2258   31.5134 C   0  0  0  0  0  0  0  0  0  0  0  0
   -9.0771  -22.8673   31.1484 C   0  0  0  0  0  0  0  0  0  0  0  0
   -9.3939  -21.9586   32.3703 C   0  0  0  0  0  0  0  0  0  0  0  0
  -10.7629  -21.3873   32.0067 C   0  0  0  0  0  0  0  0  0  0  0  0
  -11.0996  -22.1105   30.6859 C   0  0  0  0  0  0  0  0  0  0  0  0
  -11.5231  -23.5837   30.9718 C   0  0  0  0  0  0  0  0  0  0  0  0
   -9.8184  -22.2268   30.0556 N   0  0  0  0  0  0  0  0  0  0  0  0
   -9.9447  -22.8372   28.8135 C   0  0  0  0  0  0  0  0  0  0  0  0
  -10.8974  -22.3522   27.9935 N   0  0  0  0  0  0  0  0  0  0  0  0
  -11.2653  -23.1000   26.9429 C   0  0  0  0  0  0  0  0  0  0  0  0
  -10.7697  -24.3552   26.7257 C   0  0  0  0  0  0  0  0  0  0  0  0
   -9.7787  -24.7497   27.5842 C   0  0  0  0  0  0  0  0  0  0  0  0
   -9.2964  -23.9804   28.5739 N   0  0  0  0  0  0  0  0  0  0  0  0
  -12.9368  -24.7196   28.7760 H   0  0  0  0  0  0  0  0  0  0  0  0
  -14.1200  -25.8884   26.9679 H   0  0  0  0  0  0  0  0  0  0  0  0
  -14.1337  -28.3825   26.9465 H   0  0  0  0  0  0  0  0  0  0  0  0
  -11.9500  -28.5861   30.4239 H   0  0  0  0  0  0  0  0  0  0  0  0
   -8.8811  -24.9221   31.4167 H   0  0  0  0  0  0  0  0  0  0  0  0
   -9.9401  -24.3644   32.5824 H   0  0  0  0  0  0  0  0  0  0  0  0
   -8.0121  -22.9093   30.9549 H   0  0  0  0  0  0  0  0  0  0  0  0
   -8.6618  -21.1649   32.5182 H   0  0  0  0  0  0  0  0  0  0  0  0
   -9.4169  -22.4983   33.3237 H   0  0  0  0  0  0  0  0  0  0  0  0
  -11.5006  -21.5476   32.7958 H   0  0  0  0  0  0  0  0  0  0  0  0
  -10.6980  -20.3057   31.8461 H   0  0  0  0  0  0  0  0  0  0  0  0
  -11.8666  -21.5435   30.1441 H   0  0  0  0  0  0  0  0  0  0  0  0
  -12.3879  -23.6746   30.3231 H   0  0  0  0  0  0  0  0  0  0  0  0
  -11.8544  -23.6049   31.9827 H   0  0  0  0  0  0  0  0  0  0  0  0
  -12.0163  -22.6559   26.2962 H   0  0  0  0  0  0  0  0  0  0  0  0
  -11.1136  -25.0015   25.9377 H   0  0  0  0  0  0  0  0  0  0  0  0
   -9.3032  -25.7196   27.4765 H   0  0  0  0  0  0  0  0  0  0  0  0
  1  2  2  0
  2  3  1  0
  3  4  2  0
  4  5  1  0
  5  6  2  0
  6  7  1  0
  7  8  2  0
  2  9  1  0
  9 10  1  0
 10 11  1  0
 11 12  1  0
 12 13  1  0
 13 14  1  0
 14 15  1  0
 14 16  1  0
 16 17  1  0
 17 18  2  0
 18 19  1  0
 19 20  2  0
 20 21  1  0
 21 22  2  0
  8  3  1  0
 15  9  1  0
 22 17  1  0
 16 11  1  0
  4 23  1  0
  5 24  1  0
  6 25  1  0
  8 26  1  0
 10 27  1  0
 10 28  1  0
 11 29  1  0
 12 30  1  0
 12 31  1  0
 13 32  1  0
 13 33  1  0
 14 34  1  0
 15 35  1  0
 15 36  1  0
 19 37  1  0
 20 38  1  0
 21 39  1  0
M  END
>  <Energy>  (50) 
122.58297374068668

>  <compound_id>  (50) 
34619

>  <target_id>  (50) 
1

>  <reference_id>  (50) 
54

>  <inspiration_ids>  (50) 
[82, 54]

>  <energy_score>  (50) 
63.81677443552229

>  <distance_score>  (50) 
3.052084333103905

>  <path>  (50) 
/opt/xchem-fragalysis-2/maxwin/BulkDock/SCRATCH/511015/C34619-P54/C34619-P54.minimised.mol

>  <scratch_subdir>  (50) 
/opt/xchem-fragalysis-2/maxwin/BulkDock/SCRATCH/511015/C34619-P54

>  <fragmenstein_runtime>  (50) 
4.62390661239624

>  <fragmenstein_outcome>  (50) 
too moved

>  <fragmenstein_mode>  (50) 
expansion

>  <fragmenstein_error>  (50) 


$$$$
C34621-P82
     RDKit          3D

 39 42  0  0  0  0  0  0  0  0999 V2000
  -11.3008  -25.4424   34.6251 O   0  0  0  0  0  0  0  0  0  0  0  0
  -11.5904  -24.8785   33.5866 C   0  0  0  0  0  0  0  0  0  0  0  0
  -10.9626  -25.3551   32.4027 C   0  0  0  0  0  0  0  0  0  0  0  0
  -11.6761  -25.6436   31.2783 C   0  0  0  0  0  0  0  0  0  0  0  0
  -11.0523  -26.0978   30.1571 C   0  0  0  0  0  0  0  0  0  0  0  0
   -9.7096  -25.9819   30.1568 C   0  0  0  0  0  0  0  0  0  0  0  0
   -9.0798  -25.6406   31.3565 C   0  0  0  0  0  0  0  0  0  0  0  0
   -9.6545  -25.3180   32.4888 N   0  0  0  0  0  0  0  0  0  0  0  0
  -12.3680  -23.7817   33.3733 N   0  0  0  0  0  0  0  0  0  0  0  0
  -11.6176  -22.5897   33.4156 C   0  0  0  0  0  0  0  0  0  0  0  0
  -12.1766  -21.3676   32.7561 C   0  0  0  0  0  0  0  0  0  0  0  0
  -13.2128  -20.7640   33.7457 C   0  0  0  0  0  0  0  0  0  0  0  0
  -14.5575  -21.3181   33.2644 C   0  0  0  0  0  0  0  0  0  0  0  0
  -14.1547  -22.4393   32.2796 C   0  0  0  0  0  0  0  0  0  0  0  0
  -13.7879  -23.6845   33.1222 C   0  0  0  0  0  0  0  0  0  0  0  0
  -12.9852  -21.8144   31.6348 N   0  0  0  0  0  0  0  0  0  0  0  0
  -12.3441  -22.3507   30.5386 C   0  0  0  0  0  0  0  0  0  0  0  0
  -11.5146  -21.5880   29.8402 N   0  0  0  0  0  0  0  0  0  0  0  0
  -11.1473  -22.0525   28.6171 C   0  0  0  0  0  0  0  0  0  0  0  0
  -11.5351  -23.1941   28.0032 C   0  0  0  0  0  0  0  0  0  0  0  0
  -12.3195  -23.9126   28.8114 C   0  0  0  0  0  0  0  0  0  0  0  0
  -12.6828  -23.5314   30.0653 N   0  0  0  0  0  0  0  0  0  0  0  0
  -12.7281  -25.4786   31.2608 H   0  0  0  0  0  0  0  0  0  0  0  0
  -11.5939  -26.4391   29.2888 H   0  0  0  0  0  0  0  0  0  0  0  0
   -9.1938  -26.1981   29.2319 H   0  0  0  0  0  0  0  0  0  0  0  0
   -8.0236  -25.6157   31.5267 H   0  0  0  0  0  0  0  0  0  0  0  0
  -11.5375  -22.4110   34.4761 H   0  0  0  0  0  0  0  0  0  0  0  0
  -10.6694  -22.8194   32.9251 H   0  0  0  0  0  0  0  0  0  0  0  0
  -11.3899  -20.6483   32.5198 H   0  0  0  0  0  0  0  0  0  0  0  0
  -13.2132  -19.6754   33.8336 H   0  0  0  0  0  0  0  0  0  0  0  0
  -12.9696  -21.0154   34.7654 H   0  0  0  0  0  0  0  0  0  0  0  0
  -15.1121  -20.5392   32.7283 H   0  0  0  0  0  0  0  0  0  0  0  0
  -15.1973  -21.6630   34.0810 H   0  0  0  0  0  0  0  0  0  0  0  0
  -14.9804  -22.6346   31.5883 H   0  0  0  0  0  0  0  0  0  0  0  0
  -14.3397  -23.7644   34.0628 H   0  0  0  0  0  0  0  0  0  0  0  0
  -14.0553  -24.5245   32.5278 H   0  0  0  0  0  0  0  0  0  0  0  0
  -10.4285  -21.4483   28.1104 H   0  0  0  0  0  0  0  0  0  0  0  0
  -11.2400  -23.4927   27.0141 H   0  0  0  0  0  0  0  0  0  0  0  0
  -12.7576  -24.8442   28.4740 H   0  0  0  0  0  0  0  0  0  0  0  0
  1  2  2  0
  2  3  1  0
  3  4  2  0
  4  5  1  0
  5  6  2  0
  6  7  1  0
  7  8  2  0
  2  9  1  0
  9 10  1  0
 10 11  1  0
 11 12  1  0
 12 13  1  0
 13 14  1  0
 14 15  1  0
 14 16  1  0
 16 17  1  0
 17 18  2  0
 18 19  1  0
 19 20  2  0
 20 21  1  0
 21 22  2  0
  8  3  1  0
 15  9  1  0
 22 17  1  0
 16 11  1  0
  4 23  1  0
  5 24  1  0
  6 25  1  0
  7 26  1  0
 10 27  1  0
 10 28  1  0
 11 29  1  0
 12 30  1  0
 12 31  1  0
 13 32  1  0
 13 33  1  0
 14 34  1  0
 15 35  1  0
 15 36  1  0
 19 37  1  0
 20 38  1  0
 21 39  1  0
M  END
>  <Energy>  (51) 
129.20324960759115

>  <compound_id>  (51) 
34621

>  <target_id>  (51) 
1

>  <reference_id>  (51) 
82

>  <inspiration_ids>  (51) 
[82, 54]

>  <energy_score>  (51) 
23.7750606483624

>  <distance_score>  (51) 
2.5873225842548826

>  <path>  (51) 
/opt/xchem-fragalysis-2/maxwin/BulkDock/SCRATCH/511015/C34621-P82/C34621-P82.minimised.mol

>  <scratch_subdir>  (51) 
/opt/xchem-fragalysis-2/maxwin/BulkDock/SCRATCH/511015/C34621-P82

>  <fragmenstein_runtime>  (51) 
4.155719995498657

>  <fragmenstein_outcome>  (51) 
too moved

>  <fragmenstein_mode>  (51) 
expansion

>  <fragmenstein_error>  (51) 


$$$$
C34621-P54
     RDKit          3D

 39 42  0  0  0  0  0  0  0  0999 V2000
   -8.8067  -22.5865   34.6631 O   0  0  0  0  0  0  0  0  0  0  0  0
   -9.5303  -22.7012   33.6884 C   0  0  0  0  0  0  0  0  0  0  0  0
  -10.8838  -22.0729   33.5744 C   0  0  0  0  0  0  0  0  0  0  0  0
  -11.1550  -20.9630   34.3169 C   0  0  0  0  0  0  0  0  0  0  0  0
  -11.9088  -19.9533   33.7333 C   0  0  0  0  0  0  0  0  0  0  0  0
  -12.3235  -20.0538   32.4187 C   0  0  0  0  0  0  0  0  0  0  0  0
  -12.0398  -21.2005   31.7478 C   0  0  0  0  0  0  0  0  0  0  0  0
  -11.3917  -22.2080   32.3320 N   0  0  0  0  0  0  0  0  0  0  0  0
   -9.2483  -23.3140   32.4968 N   0  0  0  0  0  0  0  0  0  0  0  0
   -9.4438  -24.6830   32.0890 C   0  0  0  0  0  0  0  0  0  0  0  0
   -9.9180  -24.7599   30.5855 C   0  0  0  0  0  0  0  0  0  0  0  0
   -8.8305  -24.5677   29.4665 C   0  0  0  0  0  0  0  0  0  0  0  0
   -8.7349  -23.0989   29.1590 C   0  0  0  0  0  0  0  0  0  0  0  0
   -9.6204  -22.5184   30.2313 C   0  0  0  0  0  0  0  0  0  0  0  0
   -8.6842  -22.4677   31.5346 C   0  0  0  0  0  0  0  0  0  0  0  0
  -10.6813  -23.5611   30.3141 N   0  0  0  0  0  0  0  0  0  0  0  0
  -11.5276  -23.6710   29.2245 C   0  0  0  0  0  0  0  0  0  0  0  0
  -11.5483  -22.6721   28.3263 N   0  0  0  0  0  0  0  0  0  0  0  0
  -12.1020  -22.9276   27.1332 C   0  0  0  0  0  0  0  0  0  0  0  0
  -12.7367  -24.1041   26.8388 C   0  0  0  0  0  0  0  0  0  0  0  0
  -12.7509  -25.0326   27.8445 C   0  0  0  0  0  0  0  0  0  0  0  0
  -12.1529  -24.8442   29.0283 N   0  0  0  0  0  0  0  0  0  0  0  0
  -10.6756  -20.7997   35.2638 H   0  0  0  0  0  0  0  0  0  0  0  0
  -12.1106  -19.0403   34.2825 H   0  0  0  0  0  0  0  0  0  0  0  0
  -12.9097  -19.2755   31.9644 H   0  0  0  0  0  0  0  0  0  0  0  0
  -12.3825  -21.3662   30.7350 H   0  0  0  0  0  0  0  0  0  0  0  0
  -10.1319  -25.1857   32.7615 H   0  0  0  0  0  0  0  0  0  0  0  0
   -8.4747  -25.1586   32.2243 H   0  0  0  0  0  0  0  0  0  0  0  0
  -10.4650  -25.6997   30.4579 H   0  0  0  0  0  0  0  0  0  0  0  0
   -9.1247  -25.0744   28.5383 H   0  0  0  0  0  0  0  0  0  0  0  0
   -7.8429  -24.8892   29.7469 H   0  0  0  0  0  0  0  0  0  0  0  0
   -9.0975  -22.8741   28.1525 H   0  0  0  0  0  0  0  0  0  0  0  0
   -7.7007  -22.7705   29.2355 H   0  0  0  0  0  0  0  0  0  0  0  0
  -10.0291  -21.5374   29.9783 H   0  0  0  0  0  0  0  0  0  0  0  0
   -7.6597  -22.7380   31.3613 H   0  0  0  0  0  0  0  0  0  0  0  0
   -8.6891  -21.4721   31.9704 H   0  0  0  0  0  0  0  0  0  0  0  0
  -12.0349  -22.1257   26.4049 H   0  0  0  0  0  0  0  0  0  0  0  0
  -13.2191  -24.2760   25.8890 H   0  0  0  0  0  0  0  0  0  0  0  0
  -13.2502  -25.9887   27.7218 H   0  0  0  0  0  0  0  0  0  0  0  0
  1  2  2  0
  2  3  1  0
  3  4  2  0
  4  5  1  0
  5  6  2  0
  6  7  1  0
  7  8  2  0
  2  9  1  0
  9 10  1  0
 10 11  1  0
 11 12  1  0
 12 13  1  0
 13 14  1  0
 14 15  1  0
 14 16  1  0
 16 17  1  0
 17 18  2  0
 18 19  1  0
 19 20  2  0
 20 21  1  0
 21 22  2  0
  8  3  1  0
 15  9  1  0
 22 17  1  0
 16 11  1  0
  4 23  1  0
  5 24  1  0
  6 25  1  0
  7 26  1  0
 10 27  1  0
 10 28  1  0
 11 29  1  0
 12 30  1  0
 12 31  1  0
 13 32  1  0
 13 33  1  0
 14 34  1  0
 15 35  1  0
 15 36  1  0
 19 37  1  0
 20 38  1  0
 21 39  1  0
M  END
>  <Energy>  (52) 
130.61692015559734

>  <compound_id>  (52) 
34621

>  <target_id>  (52) 
1

>  <reference_id>  (52) 
54

>  <inspiration_ids>  (52) 
[82, 54]

>  <energy_score>  (52) 
25.188731196366774

>  <distance_score>  (52) 
3.0159078926189196

>  <path>  (52) 
/opt/xchem-fragalysis-2/maxwin/BulkDock/SCRATCH/511015/C34621-P54/C34621-P54.minimised.mol

>  <scratch_subdir>  (52) 
/opt/xchem-fragalysis-2/maxwin/BulkDock/SCRATCH/511015/C34621-P54

>  <fragmenstein_runtime>  (52) 
4.3057861328125

>  <fragmenstein_outcome>  (52) 
too moved

>  <fragmenstein_mode>  (52) 
expansion

>  <fragmenstein_error>  (52) 


$$$$
C34622-P82
     RDKit          3D

 39 42  0  0  0  0  0  0  0  0999 V2000
  -14.9329  -24.4632   33.0757 O   0  0  0  0  0  0  0  0  0  0  0  0
  -14.2994  -23.5131   33.4289 C   0  0  0  0  0  0  0  0  0  0  0  0
  -15.1439  -22.4032   33.9684 C   0  0  0  0  0  0  0  0  0  0  0  0
  -16.4508  -22.6838   34.3501 C   0  0  0  0  0  0  0  0  0  0  0  0
  -17.2656  -21.6296   34.7363 C   0  0  0  0  0  0  0  0  0  0  0  0
  -16.7565  -20.3372   34.7291 C   0  0  0  0  0  0  0  0  0  0  0  0
  -15.4500  -20.1436   34.3182 C   0  0  0  0  0  0  0  0  0  0  0  0
  -14.6388  -21.1355   33.9099 N   0  0  0  0  0  0  0  0  0  0  0  0
  -12.9128  -23.2405   33.3275 N   0  0  0  0  0  0  0  0  0  0  0  0
  -11.7310  -24.1334   32.8268 C   0  0  0  0  0  0  0  0  0  0  0  0
  -10.5417  -23.2803   32.5331 C   0  0  0  0  0  0  0  0  0  0  0  0
  -11.2350  -21.9715   32.2319 C   0  0  0  0  0  0  0  0  0  0  0  0
  -12.6163  -22.5157   32.0540 C   0  0  0  0  0  0  0  0  0  0  0  0
  -12.8770  -23.0999   30.6812 C   0  0  0  0  0  0  0  0  0  0  0  0
  -11.8792  -24.1013   30.3934 N   0  0  0  0  0  0  0  0  0  0  0  0
  -11.8590  -24.5417   29.0961 C   0  0  0  0  0  0  0  0  0  0  0  0
  -11.9451  -23.6007   28.1332 N   0  0  0  0  0  0  0  0  0  0  0  0
  -11.9600  -23.9997   26.8542 C   0  0  0  0  0  0  0  0  0  0  0  0
  -11.8488  -25.3112   26.4865 C   0  0  0  0  0  0  0  0  0  0  0  0
  -11.7130  -26.1971   27.5244 C   0  0  0  0  0  0  0  0  0  0  0  0
  -11.6957  -25.8441   28.8214 N   0  0  0  0  0  0  0  0  0  0  0  0
  -11.8388  -25.0117   31.5223 C   0  0  0  0  0  0  0  0  0  0  0  0
  -16.8299  -23.7014   34.3329 H   0  0  0  0  0  0  0  0  0  0  0  0
  -18.2903  -21.8186   35.0447 H   0  0  0  0  0  0  0  0  0  0  0  0
  -17.3670  -19.4997   35.0495 H   0  0  0  0  0  0  0  0  0  0  0  0
  -15.0026  -19.1562   34.3389 H   0  0  0  0  0  0  0  0  0  0  0  0
  -11.5426  -24.8209   33.6597 H   0  0  0  0  0  0  0  0  0  0  0  0
   -9.9955  -23.7428   31.7122 H   0  0  0  0  0  0  0  0  0  0  0  0
   -9.7616  -23.3484   33.2547 H   0  0  0  0  0  0  0  0  0  0  0  0
  -11.2742  -21.2731   33.0719 H   0  0  0  0  0  0  0  0  0  0  0  0
  -10.9212  -21.3953   31.3638 H   0  0  0  0  0  0  0  0  0  0  0  0
  -13.2808  -21.6474   32.0692 H   0  0  0  0  0  0  0  0  0  0  0  0
  -12.8577  -22.2828   29.9558 H   0  0  0  0  0  0  0  0  0  0  0  0
  -13.8577  -23.5433   30.7840 H   0  0  0  0  0  0  0  0  0  0  0  0
  -12.0805  -23.2078   26.1212 H   0  0  0  0  0  0  0  0  0  0  0  0
  -11.8649  -25.6245   25.4557 H   0  0  0  0  0  0  0  0  0  0  0  0
  -11.6251  -27.2610   27.3376 H   0  0  0  0  0  0  0  0  0  0  0  0
  -12.7398  -25.5564   31.5439 H   0  0  0  0  0  0  0  0  0  0  0  0
  -10.9902  -25.7036   31.4545 H   0  0  0  0  0  0  0  0  0  0  0  0
  1  2  2  0
  2  3  1  0
  3  4  2  0
  4  5  1  0
  5  6  2  0
  6  7  1  0
  7  8  2  0
  2  9  1  0
  9 10  1  0
 10 11  1  0
 11 12  1  0
 12 13  1  0
 13 14  1  0
 14 15  1  0
 15 16  1  0
 16 17  2  0
 17 18  1  0
 18 19  2  0
 19 20  1  0
 20 21  2  0
 15 22  1  0
  8  3  1  0
 13  9  1  0
 21 16  1  0
 22 10  1  0
  4 23  1  0
  5 24  1  0
  6 25  1  0
  7 26  1  0
 10 27  1  0
 11 28  1  0
 11 29  1  0
 12 30  1  0
 12 31  1  0
 13 32  1  0
 14 33  1  0
 14 34  1  0
 18 35  1  0
 19 36  1  0
 20 37  1  0
 22 38  1  0
 22 39  1  0
M  END
>  <Energy>  (53) 
128.24596785530125

>  <compound_id>  (53) 
34622

>  <target_id>  (53) 
1

>  <reference_id>  (53) 
82

>  <inspiration_ids>  (53) 
[82, 54]

>  <energy_score>  (53) 
50.012334607397634

>  <distance_score>  (53) 
4.340289089717399

>  <path>  (53) 
/opt/xchem-fragalysis-2/maxwin/BulkDock/SCRATCH/511015/C34622-P82/C34622-P82.minimised.mol

>  <scratch_subdir>  (53) 
/opt/xchem-fragalysis-2/maxwin/BulkDock/SCRATCH/511015/C34622-P82

>  <fragmenstein_runtime>  (53) 
6.602693796157837

>  <fragmenstein_outcome>  (53) 
too moved

>  <fragmenstein_mode>  (53) 
expansion

>  <fragmenstein_error>  (53) 


$$$$
C34622-P54
     RDKit          3D

 39 42  0  0  0  0  0  0  0  0999 V2000
  -11.1709  -26.0278   29.2957 O   0  0  0  0  0  0  0  0  0  0  0  0
  -11.1913  -25.7613   30.4682 C   0  0  0  0  0  0  0  0  0  0  0  0
  -12.1830  -26.5801   31.2187 C   0  0  0  0  0  0  0  0  0  0  0  0
  -13.3800  -26.9150   30.5896 C   0  0  0  0  0  0  0  0  0  0  0  0
  -14.2486  -27.7789   31.2410 C   0  0  0  0  0  0  0  0  0  0  0  0
  -13.8661  -28.3328   32.4564 C   0  0  0  0  0  0  0  0  0  0  0  0
  -12.6356  -27.9832   32.9847 C   0  0  0  0  0  0  0  0  0  0  0  0
  -11.8029  -27.0859   32.4194 N   0  0  0  0  0  0  0  0  0  0  0  0
  -10.3670  -24.8802   31.2358 N   0  0  0  0  0  0  0  0  0  0  0  0
   -9.1718  -24.1076   30.8581 C   0  0  0  0  0  0  0  0  0  0  0  0
   -8.8391  -23.0998   31.9517 C   0  0  0  0  0  0  0  0  0  0  0  0
  -10.2081  -22.6904   32.3565 C   0  0  0  0  0  0  0  0  0  0  0  0
  -10.9747  -23.4580   31.2818 C   0  0  0  0  0  0  0  0  0  0  0  0
  -11.1579  -22.5512   30.0216 C   0  0  0  0  0  0  0  0  0  0  0  0
  -10.3177  -22.9824   28.9201 N   0  0  0  0  0  0  0  0  0  0  0  0
  -11.0316  -23.6680   27.9283 C   0  0  0  0  0  0  0  0  0  0  0  0
  -12.3703  -23.5132   27.8683 N   0  0  0  0  0  0  0  0  0  0  0  0
  -13.0767  -24.3703   27.1123 C   0  0  0  0  0  0  0  0  0  0  0  0
  -12.5087  -25.4030   26.4254 C   0  0  0  0  0  0  0  0  0  0  0  0
  -11.1405  -25.4357   26.4753 C   0  0  0  0  0  0  0  0  0  0  0  0
  -10.3888  -24.5413   27.1414 N   0  0  0  0  0  0  0  0  0  0  0  0
   -9.0849  -23.6383   29.3745 C   0  0  0  0  0  0  0  0  0  0  0  0
  -13.6208  -26.5185   29.6081 H   0  0  0  0  0  0  0  0  0  0  0  0
  -15.1945  -28.0560   30.7834 H   0  0  0  0  0  0  0  0  0  0  0  0
  -14.5000  -29.0525   32.9637 H   0  0  0  0  0  0  0  0  0  0  0  0
  -12.2753  -28.4397   33.9019 H   0  0  0  0  0  0  0  0  0  0  0  0
   -8.3988  -24.8583   30.9230 H   0  0  0  0  0  0  0  0  0  0  0  0
   -8.3209  -23.5685   32.7963 H   0  0  0  0  0  0  0  0  0  0  0  0
   -8.2337  -22.2779   31.5938 H   0  0  0  0  0  0  0  0  0  0  0  0
  -10.4233  -23.0559   33.3644 H   0  0  0  0  0  0  0  0  0  0  0  0
  -10.3671  -21.6086   32.3539 H   0  0  0  0  0  0  0  0  0  0  0  0
  -11.9630  -23.5991   31.6470 H   0  0  0  0  0  0  0  0  0  0  0  0
  -10.8779  -21.5158   30.2554 H   0  0  0  0  0  0  0  0  0  0  0  0
  -12.2283  -22.4653   29.8012 H   0  0  0  0  0  0  0  0  0  0  0  0
  -14.1504  -24.2148   27.1111 H   0  0  0  0  0  0  0  0  0  0  0  0
  -13.0836  -26.1286   25.8710 H   0  0  0  0  0  0  0  0  0  0  0  0
  -10.5857  -26.2287   25.9900 H   0  0  0  0  0  0  0  0  0  0  0  0
   -8.2513  -22.9420   29.2795 H   0  0  0  0  0  0  0  0  0  0  0  0
   -8.8035  -24.5030   28.7652 H   0  0  0  0  0  0  0  0  0  0  0  0
  1  2  2  0
  2  3  1  0
  3  4  2  0
  4  5  1  0
  5  6  2  0
  6  7  1  0
  7  8  2  0
  2  9  1  0
  9 10  1  0
 10 11  1  0
 11 12  1  0
 12 13  1  0
 13 14  1  0
 14 15  1  0
 15 16  1  0
 16 17  2  0
 17 18  1  0
 18 19  2  0
 19 20  1  0
 20 21  2  0
 15 22  1  0
  8  3  1  0
 13  9  1  0
 21 16  1  0
 22 10  1  0
  4 23  1  0
  5 24  1  0
  6 25  1  0
  7 26  1  0
 10 27  1  0
 11 28  1  0
 11 29  1  0
 12 30  1  0
 12 31  1  0
 13 32  1  0
 14 33  1  0
 14 34  1  0
 18 35  1  0
 19 36  1  0
 20 37  1  0
 22 38  1  0
 22 39  1  0
M  END
>  <Energy>  (54) 
132.60734302574593

>  <compound_id>  (54) 
34622

>  <target_id>  (54) 
1

>  <reference_id>  (54) 
54

>  <inspiration_ids>  (54) 
[82, 54]

>  <energy_score>  (54) 
54.37370977784266

>  <distance_score>  (54) 
3.042375968475733

>  <path>  (54) 
/opt/xchem-fragalysis-2/maxwin/BulkDock/SCRATCH/511015/C34622-P54/C34622-P54.minimised.mol

>  <scratch_subdir>  (54) 
/opt/xchem-fragalysis-2/maxwin/BulkDock/SCRATCH/511015/C34622-P54

>  <fragmenstein_runtime>  (54) 
7.239070653915405

>  <fragmenstein_outcome>  (54) 
too moved

>  <fragmenstein_mode>  (54) 
expansion

>  <fragmenstein_error>  (54) 


$$$$
C34623-P82
     RDKit          3D

 45 48  0  0  0  0  0  0  0  0999 V2000
  -11.5059  -21.6908   32.2147 O   0  0  0  0  0  0  0  0  0  0  0  0
  -12.3829  -22.2827   32.7831 C   0  0  0  0  0  0  0  0  0  0  0  0
  -13.7701  -21.8358   32.6799 C   0  0  0  0  0  0  0  0  0  0  0  0
  -14.0215  -22.2010   31.2091 C   0  0  0  0  0  0  0  0  0  0  0  0
  -12.8626  -22.6645   30.2308 C   0  0  0  0  0  0  0  0  0  0  0  0
  -12.0668  -21.8236   29.4970 C   0  0  0  0  0  0  0  0  0  0  0  0
  -11.7009  -22.1813   28.2038 C   0  0  0  0  0  0  0  0  0  0  0  0
  -12.1571  -23.3361   27.6462 C   0  0  0  0  0  0  0  0  0  0  0  0
  -12.6211  -24.2327   28.5567 C   0  0  0  0  0  0  0  0  0  0  0  0
  -12.8482  -23.9514   29.8604 N   0  0  0  0  0  0  0  0  0  0  0  0
  -12.3530  -23.4637   33.5130 N   0  0  0  0  0  0  0  0  0  0  0  0
  -12.6205  -24.6256   32.6517 C   0  0  0  0  0  0  0  0  0  0  0  0
  -11.6296  -25.4590   31.8288 C   0  0  0  0  0  0  0  0  0  0  0  0
  -10.6280  -26.4341   32.5633 C   0  0  0  0  0  0  0  0  0  0  0  0
   -9.3790  -25.5851   32.8697 C   0  0  0  0  0  0  0  0  0  0  0  0
  -10.0293  -24.2910   32.6262 C   0  0  0  0  0  0  0  0  0  0  0  0
  -11.2823  -24.2700   33.8937 C   0  0  0  0  0  0  0  0  0  0  0  0
  -10.6609  -24.5688   31.2784 N   0  0  0  0  0  0  0  0  0  0  0  0
  -10.2315  -25.3299   30.1265 C   0  0  0  0  0  0  0  0  0  0  0  0
   -9.7148  -24.7184   29.0845 N   0  0  0  0  0  0  0  0  0  0  0  0
  -10.0163  -25.1670   27.8448 C   0  0  0  0  0  0  0  0  0  0  0  0
  -10.7287  -26.2790   27.5334 C   0  0  0  0  0  0  0  0  0  0  0  0
  -11.1271  -26.9331   28.6425 C   0  0  0  0  0  0  0  0  0  0  0  0
  -10.7863  -26.5479   29.8769 N   0  0  0  0  0  0  0  0  0  0  0  0
  -13.8895  -20.7968   32.9522 H   0  0  0  0  0  0  0  0  0  0  0  0
  -14.4539  -22.3929   33.3318 H   0  0  0  0  0  0  0  0  0  0  0  0
  -14.6328  -21.4127   30.7721 H   0  0  0  0  0  0  0  0  0  0  0  0
  -14.7525  -23.0154   31.2463 H   0  0  0  0  0  0  0  0  0  0  0  0
  -11.7533  -20.8848   29.8784 H   0  0  0  0  0  0  0  0  0  0  0  0
  -11.1150  -21.5369   27.5845 H   0  0  0  0  0  0  0  0  0  0  0  0
  -12.0361  -23.5639   26.5987 H   0  0  0  0  0  0  0  0  0  0  0  0
  -12.9630  -25.2131   28.2621 H   0  0  0  0  0  0  0  0  0  0  0  0
  -13.1248  -25.2955   33.3585 H   0  0  0  0  0  0  0  0  0  0  0  0
  -13.4633  -24.3664   32.0291 H   0  0  0  0  0  0  0  0  0  0  0  0
  -12.2811  -25.9302   31.1054 H   0  0  0  0  0  0  0  0  0  0  0  0
  -10.4015  -27.2825   31.9137 H   0  0  0  0  0  0  0  0  0  0  0  0
  -10.9167  -26.8707   33.4989 H   0  0  0  0  0  0  0  0  0  0  0  0
   -9.0239  -25.6574   33.8927 H   0  0  0  0  0  0  0  0  0  0  0  0
   -8.5532  -25.7779   32.1815 H   0  0  0  0  0  0  0  0  0  0  0  0
   -9.4009  -23.4125   32.6616 H   0  0  0  0  0  0  0  0  0  0  0  0
  -11.1643  -23.6973   34.7790 H   0  0  0  0  0  0  0  0  0  0  0  0
  -11.4481  -25.2361   34.3890 H   0  0  0  0  0  0  0  0  0  0  0  0
   -9.7923  -24.4549   27.0586 H   0  0  0  0  0  0  0  0  0  0  0  0
  -11.0043  -26.5594   26.5322 H   0  0  0  0  0  0  0  0  0  0  0  0
  -11.7568  -27.8122   28.5894 H   0  0  0  0  0  0  0  0  0  0  0  0
  1  2  2  0
  2  3  1  0
  3  4  1  0
  4  5  1  0
  5  6  2  0
  6  7  1  0
  7  8  2  0
  8  9  1  0
  9 10  2  0
  2 11  1  0
 11 12  1  0
 12 13  1  0
 13 14  1  0
 14 15  1  0
 15 16  1  0
 16 17  1  0
 16 18  1  0
 18 19  1  0
 19 20  2  0
 20 21  1  0
 21 22  2  0
 22 23  1  0
 23 24  2  0
 10  5  1  0
 17 11  1  0
 24 19  1  0
 18 13  1  0
  3 25  1  0
  3 26  1  0
  4 27  1  0
  4 28  1  0
  6 29  1  0
  7 30  1  0
  8 31  1  0
  9 32  1  0
 12 33  1  0
 12 34  1  0
 13 35  1  0
 14 36  1  0
 14 37  1  0
 15 38  1  0
 15 39  1  0
 16 40  1  0
 17 41  1  0
 17 42  1  0
 21 43  1  0
 22 44  1  0
 23 45  1  0
M  END
>  <Energy>  (55) 
268.67631826453896

>  <compound_id>  (55) 
34623

>  <target_id>  (55) 
1

>  <reference_id>  (55) 
82

>  <inspiration_ids>  (55) 
[82, 54]

>  <energy_score>  (55) 
245.59455216821237

>  <distance_score>  (55) 
3.1347820975977205

>  <path>  (55) 
/opt/xchem-fragalysis-2/maxwin/BulkDock/SCRATCH/511015/C34623-P82/C34623-P82.minimised.mol

>  <scratch_subdir>  (55) 
/opt/xchem-fragalysis-2/maxwin/BulkDock/SCRATCH/511015/C34623-P82

>  <fragmenstein_runtime>  (55) 
6.847787141799927

>  <fragmenstein_outcome>  (55) 
too moved

>  <fragmenstein_mode>  (55) 
expansion

>  <fragmenstein_error>  (55) 


$$$$
C34623-P54
     RDKit          3D

 45 48  0  0  0  0  0  0  0  0999 V2000
  -12.1100  -22.6673   30.5364 O   0  0  0  0  0  0  0  0  0  0  0  0
  -10.9505  -22.9653   30.5138 C   0  0  0  0  0  0  0  0  0  0  0  0
  -10.2786  -23.4004   31.8046 C   0  0  0  0  0  0  0  0  0  0  0  0
  -10.0043  -24.8990   31.9716 C   0  0  0  0  0  0  0  0  0  0  0  0
  -11.1148  -25.9424   31.7519 C   0  0  0  0  0  0  0  0  0  0  0  0
  -11.3215  -26.9906   32.6658 C   0  0  0  0  0  0  0  0  0  0  0  0
  -12.3264  -27.9341   32.4740 C   0  0  0  0  0  0  0  0  0  0  0  0
  -13.0965  -27.8582   31.3369 C   0  0  0  0  0  0  0  0  0  0  0  0
  -12.8131  -26.8402   30.4560 C   0  0  0  0  0  0  0  0  0  0  0  0
  -11.8614  -25.8906   30.6460 N   0  0  0  0  0  0  0  0  0  0  0  0
  -10.0106  -22.9247   29.4546 N   0  0  0  0  0  0  0  0  0  0  0  0
   -9.9937  -24.2726   28.6992 C   0  0  0  0  0  0  0  0  0  0  0  0
  -11.2181  -24.8134   27.8982 C   0  0  0  0  0  0  0  0  0  0  0  0
  -10.8548  -24.8752   26.4070 C   0  0  0  0  0  0  0  0  0  0  0  0
  -10.9779  -23.4019   25.9676 C   0  0  0  0  0  0  0  0  0  0  0  0
  -11.4389  -22.6950   27.2406 C   0  0  0  0  0  0  0  0  0  0  0  0
  -10.1336  -22.3980   28.0704 C   0  0  0  0  0  0  0  0  0  0  0  0
  -12.1965  -23.7556   27.9076 N   0  0  0  0  0  0  0  0  0  0  0  0
  -13.4278  -24.1538   27.4152 C   0  0  0  0  0  0  0  0  0  0  0  0
  -13.9900  -23.4753   26.4065 N   0  0  0  0  0  0  0  0  0  0  0  0
  -15.2499  -23.7891   26.0662 C   0  0  0  0  0  0  0  0  0  0  0  0
  -15.9426  -24.8355   26.6057 C   0  0  0  0  0  0  0  0  0  0  0  0
  -15.2632  -25.5344   27.5628 C   0  0  0  0  0  0  0  0  0  0  0  0
  -14.0214  -25.2201   27.9679 N   0  0  0  0  0  0  0  0  0  0  0  0
   -9.3241  -22.8615   31.8843 H   0  0  0  0  0  0  0  0  0  0  0  0
  -10.8770  -23.0127   32.6340 H   0  0  0  0  0  0  0  0  0  0  0  0
   -9.1600  -25.1282   31.3281 H   0  0  0  0  0  0  0  0  0  0  0  0
   -9.6113  -25.0333   32.9884 H   0  0  0  0  0  0  0  0  0  0  0  0
  -10.6538  -27.1254   33.5082 H   0  0  0  0  0  0  0  0  0  0  0  0
  -12.4700  -28.7423   33.1855 H   0  0  0  0  0  0  0  0  0  0  0  0
  -13.8736  -28.5823   31.1254 H   0  0  0  0  0  0  0  0  0  0  0  0
  -13.3717  -26.7610   29.5341 H   0  0  0  0  0  0  0  0  0  0  0  0
   -9.0355  -24.4032   28.1720 H   0  0  0  0  0  0  0  0  0  0  0  0
   -9.8699  -25.0075   29.4829 H   0  0  0  0  0  0  0  0  0  0  0  0
  -11.5328  -25.8000   28.2403 H   0  0  0  0  0  0  0  0  0  0  0  0
   -9.8718  -25.3147   26.2426 H   0  0  0  0  0  0  0  0  0  0  0  0
  -11.5756  -25.5074   25.8782 H   0  0  0  0  0  0  0  0  0  0  0  0
  -10.0507  -23.0408   25.5381 H   0  0  0  0  0  0  0  0  0  0  0  0
  -11.7488  -23.2161   25.2226 H   0  0  0  0  0  0  0  0  0  0  0  0
  -11.9956  -21.7785   27.0581 H   0  0  0  0  0  0  0  0  0  0  0  0
   -9.1977  -22.4819   27.5125 H   0  0  0  0  0  0  0  0  0  0  0  0
  -10.1996  -21.3155   28.2596 H   0  0  0  0  0  0  0  0  0  0  0  0
  -15.7085  -23.1202   25.3443 H   0  0  0  0  0  0  0  0  0  0  0  0
  -16.9600  -25.0673   26.3284 H   0  0  0  0  0  0  0  0  0  0  0  0
  -15.7192  -26.3777   28.0706 H   0  0  0  0  0  0  0  0  0  0  0  0
  1  2  2  0
  2  3  1  0
  3  4  1  0
  4  5  1  0
  5  6  2  0
  6  7  1  0
  7  8  2  0
  8  9  1  0
  9 10  2  0
  2 11  1  0
 11 12  1  0
 12 13  1  0
 13 14  1  0
 14 15  1  0
 15 16  1  0
 16 17  1  0
 16 18  1  0
 18 19  1  0
 19 20  2  0
 20 21  1  0
 21 22  2  0
 22 23  1  0
 23 24  2  0
 10  5  1  0
 17 11  1  0
 24 19  1  0
 18 13  1  0
  3 25  1  0
  3 26  1  0
  4 27  1  0
  4 28  1  0
  6 29  1  0
  7 30  1  0
  8 31  1  0
  9 32  1  0
 12 33  1  0
 12 34  1  0
 13 35  1  0
 14 36  1  0
 14 37  1  0
 15 38  1  0
 15 39  1  0
 16 40  1  0
 17 41  1  0
 17 42  1  0
 21 43  1  0
 22 44  1  0
 23 45  1  0
M  END
>  <Energy>  (56) 
105.20843132998206

>  <compound_id>  (56) 
34623

>  <target_id>  (56) 
1

>  <reference_id>  (56) 
54

>  <inspiration_ids>  (56) 
[82, 54]

>  <energy_score>  (56) 
82.12666523365723

>  <distance_score>  (56) 
4.342631461544903

>  <path>  (56) 
/opt/xchem-fragalysis-2/maxwin/BulkDock/SCRATCH/511015/C34623-P54/C34623-P54.minimised.mol

>  <scratch_subdir>  (56) 
/opt/xchem-fragalysis-2/maxwin/BulkDock/SCRATCH/511015/C34623-P54

>  <fragmenstein_runtime>  (56) 
8.293176651000977

>  <fragmenstein_outcome>  (56) 
too moved

>  <fragmenstein_mode>  (56) 
expansion

>  <fragmenstein_error>  (56) 


$$$$
C34624-P82
     RDKit          3D

 43 44  0  0  0  0  0  0  0  0999 V2000
  -10.5162  -23.4973   32.7933 C   0  0  0  0  0  0  0  0  0  0  0  0
  -11.6986  -22.9199   33.6086 C   0  0  0  0  0  0  0  0  0  0  0  0
  -11.9570  -21.3912   33.6451 C   0  0  0  0  0  0  0  0  0  0  0  0
  -13.0061  -23.6036   33.3313 C   0  0  0  0  0  0  0  0  0  0  0  0
  -13.5227  -23.4963   31.9227 C   0  0  0  0  0  0  0  0  0  0  0  0
  -13.4219  -22.1507   31.2202 C   0  0  0  0  0  0  0  0  0  0  0  0
  -12.1728  -21.8465   30.4875 N   0  0  0  0  0  0  0  0  0  0  0  0
  -11.9301  -22.4203   29.2499 C   0  0  0  0  0  0  0  0  0  0  0  0
  -12.7747  -22.4261   28.2492 N   0  0  0  0  0  0  0  0  0  0  0  0
  -12.5044  -23.0684   27.0895 C   0  0  0  0  0  0  0  0  0  0  0  0
  -11.3365  -23.6447   26.8221 C   0  0  0  0  0  0  0  0  0  0  0  0
  -10.5228  -23.5787   27.8950 C   0  0  0  0  0  0  0  0  0  0  0  0
  -10.8141  -23.0583   29.1005 N   0  0  0  0  0  0  0  0  0  0  0  0
  -12.9076  -24.4028   31.0449 N   0  0  0  0  0  0  0  0  0  0  0  0
  -11.8989  -25.5016   31.3101 C   0  0  0  0  0  0  0  0  0  0  0  0
  -11.4614  -25.8964   32.3080 O   0  0  0  0  0  0  0  0  0  0  0  0
  -11.4051  -26.0042   30.0610 C   0  0  0  0  0  0  0  0  0  0  0  0
  -12.1575  -26.0492   28.8944 C   0  0  0  0  0  0  0  0  0  0  0  0
  -11.5901  -26.4395   27.7271 C   0  0  0  0  0  0  0  0  0  0  0  0
  -10.2300  -26.4766   27.7613 C   0  0  0  0  0  0  0  0  0  0  0  0
   -9.4474  -26.3166   28.8518 N   0  0  0  0  0  0  0  0  0  0  0  0
  -10.0571  -26.1687   30.0272 C   0  0  0  0  0  0  0  0  0  0  0  0
   -9.5841  -22.9588   32.7524 H   0  0  0  0  0  0  0  0  0  0  0  0
  -10.7337  -23.6337   31.7506 H   0  0  0  0  0  0  0  0  0  0  0  0
  -10.2120  -24.4569   33.2160 H   0  0  0  0  0  0  0  0  0  0  0  0
  -11.5540  -23.2182   34.6436 H   0  0  0  0  0  0  0  0  0  0  0  0
  -11.4383  -20.8505   32.8521 H   0  0  0  0  0  0  0  0  0  0  0  0
  -11.6806  -20.9487   34.6007 H   0  0  0  0  0  0  0  0  0  0  0  0
  -13.0187  -21.1354   33.6504 H   0  0  0  0  0  0  0  0  0  0  0  0
  -13.7921  -23.1755   33.9646 H   0  0  0  0  0  0  0  0  0  0  0  0
  -12.9659  -24.6489   33.6535 H   0  0  0  0  0  0  0  0  0  0  0  0
  -14.5853  -23.7279   31.9856 H   0  0  0  0  0  0  0  0  0  0  0  0
  -14.2782  -22.0754   30.5624 H   0  0  0  0  0  0  0  0  0  0  0  0
  -13.6671  -21.3676   31.9246 H   0  0  0  0  0  0  0  0  0  0  0  0
  -11.3584  -22.0551   31.0367 H   0  0  0  0  0  0  0  0  0  0  0  0
  -13.2899  -23.1153   26.3472 H   0  0  0  0  0  0  0  0  0  0  0  0
  -11.0866  -24.1083   25.8846 H   0  0  0  0  0  0  0  0  0  0  0  0
   -9.5423  -24.0008   27.8373 H   0  0  0  0  0  0  0  0  0  0  0  0
  -13.0013  -24.2658   30.0498 H   0  0  0  0  0  0  0  0  0  0  0  0
  -13.1668  -25.6882   28.8347 H   0  0  0  0  0  0  0  0  0  0  0  0
  -12.1461  -26.5513   26.8074 H   0  0  0  0  0  0  0  0  0  0  0  0
   -9.7004  -26.7161   26.8548 H   0  0  0  0  0  0  0  0  0  0  0  0
   -9.4387  -26.0962   30.9158 H   0  0  0  0  0  0  0  0  0  0  0  0
  1  2  1  0
  2  3  1  0
  2  4  1  0
  4  5  1  0
  5  6  1  0
  6  7  1  0
  7  8  1  0
  8  9  2  0
  9 10  1  0
 10 11  2  0
 11 12  1  0
 12 13  2  0
  5 14  1  0
 14 15  1  0
 15 16  2  0
 15 17  1  0
 17 18  2  0
 18 19  1  0
 19 20  2  0
 20 21  1  0
 21 22  2  0
 13  8  1  0
 22 17  1  0
  1 23  1  0
  1 24  1  0
  1 25  1  0
  2 26  1  0
  3 27  1  0
  3 28  1  0
  3 29  1  0
  4 30  1  0
  4 31  1  0
  5 32  1  0
  6 33  1  0
  6 34  1  0
  7 35  1  0
 10 36  1  0
 11 37  1  0
 12 38  1  0
 14 39  1  0
 18 40  1  0
 19 41  1  0
 20 42  1  0
 22 43  1  0
M  END
>  <Energy>  (57) 
46.420293819937477

>  <compound_id>  (57) 
34624

>  <target_id>  (57) 
1

>  <reference_id>  (57) 
82

>  <inspiration_ids>  (57) 
[82, 54]

>  <energy_score>  (57) 
40.38958464860042

>  <distance_score>  (57) 
2.84520071281632

>  <path>  (57) 
/opt/xchem-fragalysis-2/maxwin/BulkDock/SCRATCH/511015/C34624-P82/C34624-P82.minimised.mol

>  <scratch_subdir>  (57) 
/opt/xchem-fragalysis-2/maxwin/BulkDock/SCRATCH/511015/C34624-P82

>  <fragmenstein_runtime>  (57) 
7.021006345748901

>  <fragmenstein_outcome>  (57) 
too moved

>  <fragmenstein_mode>  (57) 
expansion

>  <fragmenstein_error>  (57) 


$$$$
C34624-P54
     RDKit          3D

 43 44  0  0  0  0  0  0  0  0999 V2000
   -8.5220  -23.0778   31.2989 C   0  0  0  0  0  0  0  0  0  0  0  0
   -8.7857  -22.9610   32.7858 C   0  0  0  0  0  0  0  0  0  0  0  0
   -7.7464  -22.1627   33.4806 C   0  0  0  0  0  0  0  0  0  0  0  0
  -10.0910  -22.2784   33.0995 C   0  0  0  0  0  0  0  0  0  0  0  0
  -11.1491  -22.3710   32.0227 C   0  0  0  0  0  0  0  0  0  0  0  0
  -11.3614  -21.1862   31.0552 C   0  0  0  0  0  0  0  0  0  0  0  0
  -10.8384  -21.4132   29.7248 N   0  0  0  0  0  0  0  0  0  0  0  0
  -11.4040  -22.2459   28.7997 C   0  0  0  0  0  0  0  0  0  0  0  0
  -10.8445  -22.1996   27.5958 N   0  0  0  0  0  0  0  0  0  0  0  0
  -11.3525  -23.0005   26.6438 C   0  0  0  0  0  0  0  0  0  0  0  0
  -12.3934  -23.8648   26.8468 C   0  0  0  0  0  0  0  0  0  0  0  0
  -12.9073  -23.8511   28.1100 C   0  0  0  0  0  0  0  0  0  0  0  0
  -12.4328  -23.0612   29.0953 N   0  0  0  0  0  0  0  0  0  0  0  0
  -11.3183  -23.6549   31.3579 N   0  0  0  0  0  0  0  0  0  0  0  0
  -10.7688  -25.0439   31.7146 C   0  0  0  0  0  0  0  0  0  0  0  0
  -10.0306  -25.3712   32.5528 O   0  0  0  0  0  0  0  0  0  0  0  0
  -11.3741  -26.0682   30.9046 C   0  0  0  0  0  0  0  0  0  0  0  0
  -11.3072  -26.0421   29.5297 C   0  0  0  0  0  0  0  0  0  0  0  0
  -11.9131  -27.0721   28.8425 C   0  0  0  0  0  0  0  0  0  0  0  0
  -12.5422  -28.0648   29.5790 C   0  0  0  0  0  0  0  0  0  0  0  0
  -12.6082  -28.0984   30.9282 N   0  0  0  0  0  0  0  0  0  0  0  0
  -12.0023  -27.0995   31.5765 C   0  0  0  0  0  0  0  0  0  0  0  0
   -8.5954  -24.1014   30.9289 H   0  0  0  0  0  0  0  0  0  0  0  0
   -7.5616  -22.6778   31.0288 H   0  0  0  0  0  0  0  0  0  0  0  0
   -9.1712  -22.4966   30.6766 H   0  0  0  0  0  0  0  0  0  0  0  0
   -8.7040  -23.9348   33.2669 H   0  0  0  0  0  0  0  0  0  0  0  0
   -7.8956  -22.1668   34.5625 H   0  0  0  0  0  0  0  0  0  0  0  0
   -7.8282  -21.1366   33.1278 H   0  0  0  0  0  0  0  0  0  0  0  0
   -6.7705  -22.5725   33.2540 H   0  0  0  0  0  0  0  0  0  0  0  0
  -10.4660  -22.7261   34.0261 H   0  0  0  0  0  0  0  0  0  0  0  0
   -9.9613  -21.2166   33.3497 H   0  0  0  0  0  0  0  0  0  0  0  0
  -12.0031  -22.1994   32.6398 H   0  0  0  0  0  0  0  0  0  0  0  0
  -10.9194  -20.2764   31.4746 H   0  0  0  0  0  0  0  0  0  0  0  0
  -12.4332  -20.9678   30.9606 H   0  0  0  0  0  0  0  0  0  0  0  0
  -10.4359  -20.6166   29.2457 H   0  0  0  0  0  0  0  0  0  0  0  0
  -10.8786  -22.9171   25.6709 H   0  0  0  0  0  0  0  0  0  0  0  0
  -12.7976  -24.4938   26.0699 H   0  0  0  0  0  0  0  0  0  0  0  0
  -13.7530  -24.4780   28.3793 H   0  0  0  0  0  0  0  0  0  0  0  0
  -12.0091  -23.7432   30.6167 H   0  0  0  0  0  0  0  0  0  0  0  0
  -10.7419  -25.2710   29.0158 H   0  0  0  0  0  0  0  0  0  0  0  0
  -11.8747  -27.1299   27.7606 H   0  0  0  0  0  0  0  0  0  0  0  0
  -13.0227  -28.9039   29.0805 H   0  0  0  0  0  0  0  0  0  0  0  0
  -12.0206  -27.1649   32.6591 H   0  0  0  0  0  0  0  0  0  0  0  0
  1  2  1  0
  2  3  1  0
  2  4  1  0
  4  5  1  0
  5  6  1  0
  6  7  1  0
  7  8  1  0
  8  9  2  0
  9 10  1  0
 10 11  2  0
 11 12  1  0
 12 13  2  0
  5 14  1  0
 14 15  1  0
 15 16  2  0
 15 17  1  0
 17 18  2  0
 18 19  1  0
 19 20  2  0
 20 21  1  0
 21 22  2  0
 13  8  1  0
 22 17  1  0
  1 23  1  0
  1 24  1  0
  1 25  1  0
  2 26  1  0
  3 27  1  0
  3 28  1  0
  3 29  1  0
  4 30  1  0
  4 31  1  0
  5 32  1  0
  6 33  1  0
  6 34  1  0
  7 35  1  0
 10 36  1  0
 11 37  1  0
 12 38  1  0
 14 39  1  0
 18 40  1  0
 19 41  1  0
 20 42  1  0
 22 43  1  0
M  END
>  <Energy>  (58) 
13.490079879600332

>  <compound_id>  (58) 
34624

>  <target_id>  (58) 
1

>  <reference_id>  (58) 
54

>  <inspiration_ids>  (58) 
[82, 54]

>  <energy_score>  (58) 
7.459370708264203

>  <distance_score>  (58) 
2.466089881108304

>  <path>  (58) 
/opt/xchem-fragalysis-2/maxwin/BulkDock/SCRATCH/511015/C34624-P54/C34624-P54.minimised.mol

>  <scratch_subdir>  (58) 
/opt/xchem-fragalysis-2/maxwin/BulkDock/SCRATCH/511015/C34624-P54

>  <fragmenstein_runtime>  (58) 
6.102358102798462

>  <fragmenstein_outcome>  (58) 
too moved

>  <fragmenstein_mode>  (58) 
expansion

>  <fragmenstein_error>  (58) 


$$$$
C34625-P82
     RDKit          3D

 50 51  0  0  0  0  0  0  0  0999 V2000
  -17.9908  -28.1436   35.8392 C   0  0  0  0  0  0  0  0  0  0  0  0
  -16.8860  -27.1869   35.4276 C   0  0  0  0  0  0  0  0  0  0  0  0
  -17.3403  -26.4582   34.2862 O   0  0  0  0  0  0  0  0  0  0  0  0
  -16.5136  -25.3981   33.9689 C   0  0  0  0  0  0  0  0  0  0  0  0
  -17.0952  -24.3715   33.2312 C   0  0  0  0  0  0  0  0  0  0  0  0
  -16.3601  -23.2354   32.9406 C   0  0  0  0  0  0  0  0  0  0  0  0
  -15.0711  -23.2098   33.3992 C   0  0  0  0  0  0  0  0  0  0  0  0
  -14.1421  -22.1750   33.0014 C   0  0  0  0  0  0  0  0  0  0  0  0
  -14.2855  -21.0558   33.2651 O   0  0  0  0  0  0  0  0  0  0  0  0
  -12.9884  -22.8864   32.3106 N   0  0  0  0  0  0  0  0  0  0  0  0
  -11.7271  -22.3970   31.8805 C   0  0  0  0  0  0  0  0  0  0  0  0
  -11.7661  -22.3333   30.3754 C   0  0  0  0  0  0  0  0  0  0  0  0
  -11.5173  -23.6671   29.9458 N   0  0  0  0  0  0  0  0  0  0  0  0
  -11.6543  -23.9792   28.6325 C   0  0  0  0  0  0  0  0  0  0  0  0
  -11.7642  -23.0268   27.7122 N   0  0  0  0  0  0  0  0  0  0  0  0
  -12.0858  -23.4573   26.4890 C   0  0  0  0  0  0  0  0  0  0  0  0
  -12.2465  -24.7797   26.1668 C   0  0  0  0  0  0  0  0  0  0  0  0
  -12.0377  -25.6765   27.1732 C   0  0  0  0  0  0  0  0  0  0  0  0
  -11.7578  -25.2972   28.4146 N   0  0  0  0  0  0  0  0  0  0  0  0
  -10.6344  -23.2236   32.5921 C   0  0  0  0  0  0  0  0  0  0  0  0
  -10.1260  -24.6718   32.5067 C   0  0  0  0  0  0  0  0  0  0  0  0
  -11.0340  -25.5188   33.3329 C   0  0  0  0  0  0  0  0  0  0  0  0
   -9.8671  -25.4321   31.2172 C   0  0  0  0  0  0  0  0  0  0  0  0
  -14.5422  -24.2896   34.0907 C   0  0  0  0  0  0  0  0  0  0  0  0
  -15.2287  -25.4075   34.3726 N   0  0  0  0  0  0  0  0  0  0  0  0
  -17.6913  -28.7332   36.7102 H   0  0  0  0  0  0  0  0  0  0  0  0
  -18.9061  -27.5936   36.0820 H   0  0  0  0  0  0  0  0  0  0  0  0
  -18.2364  -28.8252   35.0181 H   0  0  0  0  0  0  0  0  0  0  0  0
  -15.9942  -27.7661   35.1757 H   0  0  0  0  0  0  0  0  0  0  0  0
  -16.6694  -26.5109   36.2642 H   0  0  0  0  0  0  0  0  0  0  0  0
  -18.1218  -24.4669   32.8953 H   0  0  0  0  0  0  0  0  0  0  0  0
  -16.7743  -22.4335   32.3434 H   0  0  0  0  0  0  0  0  0  0  0  0
  -13.2309  -23.8652   32.1660 H   0  0  0  0  0  0  0  0  0  0  0  0
  -11.6620  -21.3684   32.2556 H   0  0  0  0  0  0  0  0  0  0  0  0
  -12.7532  -22.0023   30.0407 H   0  0  0  0  0  0  0  0  0  0  0  0
  -11.0581  -21.6125   29.9606 H   0  0  0  0  0  0  0  0  0  0  0  0
  -12.1007  -24.3658   30.4004 H   0  0  0  0  0  0  0  0  0  0  0  0
  -12.2291  -22.6909   25.7363 H   0  0  0  0  0  0  0  0  0  0  0  0
  -12.5339  -25.0956   25.1837 H   0  0  0  0  0  0  0  0  0  0  0  0
  -12.1171  -26.7454   27.0128 H   0  0  0  0  0  0  0  0  0  0  0  0
   -9.7163  -22.6760   32.4885 H   0  0  0  0  0  0  0  0  0  0  0  0
  -10.9805  -23.1319   33.6224 H   0  0  0  0  0  0  0  0  0  0  0  0
   -9.1560  -24.6749   33.0176 H   0  0  0  0  0  0  0  0  0  0  0  0
  -10.6868  -26.5490   33.3525 H   0  0  0  0  0  0  0  0  0  0  0  0
  -11.1001  -25.1924   34.3712 H   0  0  0  0  0  0  0  0  0  0  0  0
  -12.0364  -25.4986   32.9062 H   0  0  0  0  0  0  0  0  0  0  0  0
  -10.7707  -25.8922   30.8099 H   0  0  0  0  0  0  0  0  0  0  0  0
   -9.2086  -26.2766   31.4332 H   0  0  0  0  0  0  0  0  0  0  0  0
   -9.3643  -24.8485   30.4534 H   0  0  0  0  0  0  0  0  0  0  0  0
  -13.5005  -24.3013   34.3771 H   0  0  0  0  0  0  0  0  0  0  0  0
  1  2  1  0
  2  3  1  0
  3  4  1  0
  4  5  2  0
  5  6  1  0
  6  7  2  0
  7  8  1  0
  8  9  2  0
  8 10  1  0
 10 11  1  0
 11 12  1  0
 12 13  1  0
 13 14  1  0
 14 15  2  0
 15 16  1  0
 16 17  2  0
 17 18  1  0
 18 19  2  0
 11 20  1  0
 20 21  1  0
 21 22  1  0
 21 23  1  0
  7 24  1  0
 24 25  2  0
 25  4  1  0
 19 14  1  0
  1 26  1  0
  1 27  1  0
  1 28  1  0
  2 29  1  0
  2 30  1  0
  5 31  1  0
  6 32  1  0
 10 33  1  0
 11 34  1  0
 12 35  1  0
 12 36  1  0
 13 37  1  0
 16 38  1  0
 17 39  1  0
 18 40  1  0
 20 41  1  0
 20 42  1  0
 21 43  1  0
 22 44  1  0
 22 45  1  0
 22 46  1  0
 23 47  1  0
 23 48  1  0
 23 49  1  0
 24 50  1  0
M  END
>  <Energy>  (59) 
-5.8583023889004728

>  <compound_id>  (59) 
34625

>  <target_id>  (59) 
1

>  <reference_id>  (59) 
82

>  <inspiration_ids>  (59) 
[82, 54]

>  <energy_score>  (59) 
21.372500843452173

>  <distance_score>  (59) 
3.48462154235741

>  <path>  (59) 
/opt/xchem-fragalysis-2/maxwin/BulkDock/SCRATCH/511015/C34625-P82/C34625-P82.minimised.mol

>  <scratch_subdir>  (59) 
/opt/xchem-fragalysis-2/maxwin/BulkDock/SCRATCH/511015/C34625-P82

>  <fragmenstein_runtime>  (59) 
8.233822584152222

>  <fragmenstein_outcome>  (59) 
too moved

>  <fragmenstein_mode>  (59) 
expansion

>  <fragmenstein_error>  (59) 


$$$$
C34625-P54
     RDKit          3D

 50 51  0  0  0  0  0  0  0  0999 V2000
  -14.6704  -31.3502   29.6404 C   0  0  0  0  0  0  0  0  0  0  0  0
  -13.9731  -30.2450   30.4133 C   0  0  0  0  0  0  0  0  0  0  0  0
  -13.5577  -29.2492   29.4752 O   0  0  0  0  0  0  0  0  0  0  0  0
  -12.8462  -28.2185   30.0582 C   0  0  0  0  0  0  0  0  0  0  0  0
  -12.2790  -27.3090   29.1786 C   0  0  0  0  0  0  0  0  0  0  0  0
  -11.5412  -26.2715   29.7051 C   0  0  0  0  0  0  0  0  0  0  0  0
  -11.4386  -26.1866   31.0762 C   0  0  0  0  0  0  0  0  0  0  0  0
  -10.6512  -25.1478   31.7024 C   0  0  0  0  0  0  0  0  0  0  0  0
   -9.9217  -25.4598   32.5496 O   0  0  0  0  0  0  0  0  0  0  0  0
  -11.0174  -23.7650   31.1703 N   0  0  0  0  0  0  0  0  0  0  0  0
  -10.4914  -22.4601   31.5032 C   0  0  0  0  0  0  0  0  0  0  0  0
  -11.4054  -21.3633   30.9426 C   0  0  0  0  0  0  0  0  0  0  0  0
  -11.2391  -21.2453   29.5117 N   0  0  0  0  0  0  0  0  0  0  0  0
  -11.5301  -22.3005   28.6900 C   0  0  0  0  0  0  0  0  0  0  0  0
  -10.7837  -22.3891   27.5953 N   0  0  0  0  0  0  0  0  0  0  0  0
  -11.1426  -23.3131   26.6912 C   0  0  0  0  0  0  0  0  0  0  0  0
  -12.1997  -24.1700   26.8528 C   0  0  0  0  0  0  0  0  0  0  0  0
  -12.8787  -24.0342   28.0294 C   0  0  0  0  0  0  0  0  0  0  0  0
  -12.5354  -23.1457   28.9799 N   0  0  0  0  0  0  0  0  0  0  0  0
  -10.3070  -22.2212   32.9853 C   0  0  0  0  0  0  0  0  0  0  0  0
   -9.1985  -23.0297   33.6363 C   0  0  0  0  0  0  0  0  0  0  0  0
   -8.1049  -23.4987   32.7271 C   0  0  0  0  0  0  0  0  0  0  0  0
   -8.5351  -22.0960   34.5779 C   0  0  0  0  0  0  0  0  0  0  0  0
  -12.0095  -27.1459   31.8909 C   0  0  0  0  0  0  0  0  0  0  0  0
  -12.7371  -28.1544   31.4022 N   0  0  0  0  0  0  0  0  0  0  0  0
  -13.9946  -31.7856   28.8968 H   0  0  0  0  0  0  0  0  0  0  0  0
  -15.0115  -32.1414   30.3138 H   0  0  0  0  0  0  0  0  0  0  0  0
  -15.5329  -30.9539   29.0944 H   0  0  0  0  0  0  0  0  0  0  0  0
  -13.1067  -30.6678   30.9355 H   0  0  0  0  0  0  0  0  0  0  0  0
  -14.6760  -29.8163   31.1376 H   0  0  0  0  0  0  0  0  0  0  0  0
  -12.3823  -27.4472   28.1085 H   0  0  0  0  0  0  0  0  0  0  0  0
  -10.9949  -25.5888   29.0645 H   0  0  0  0  0  0  0  0  0  0  0  0
  -11.7561  -23.8535   30.4745 H   0  0  0  0  0  0  0  0  0  0  0  0
   -9.5316  -22.3745   30.9853 H   0  0  0  0  0  0  0  0  0  0  0  0
  -12.4549  -21.5369   31.1769 H   0  0  0  0  0  0  0  0  0  0  0  0
  -11.1540  -20.3857   31.3693 H   0  0  0  0  0  0  0  0  0  0  0  0
  -10.3786  -20.8208   29.1890 H   0  0  0  0  0  0  0  0  0  0  0  0
  -10.5390  -23.3306   25.7894 H   0  0  0  0  0  0  0  0  0  0  0  0
  -12.4856  -24.9008   26.1126 H   0  0  0  0  0  0  0  0  0  0  0  0
  -13.7460  -24.6488   28.2550 H   0  0  0  0  0  0  0  0  0  0  0  0
  -10.1211  -21.1454   33.1081 H   0  0  0  0  0  0  0  0  0  0  0  0
  -11.2285  -22.3745   33.5396 H   0  0  0  0  0  0  0  0  0  0  0  0
   -9.6049  -23.8680   34.2029 H   0  0  0  0  0  0  0  0  0  0  0  0
   -8.4546  -23.9564   31.8079 H   0  0  0  0  0  0  0  0  0  0  0  0
   -7.4897  -24.2360   33.2545 H   0  0  0  0  0  0  0  0  0  0  0  0
   -7.4634  -22.6645   32.4387 H   0  0  0  0  0  0  0  0  0  0  0  0
   -8.3747  -21.1585   34.0418 H   0  0  0  0  0  0  0  0  0  0  0  0
   -7.5359  -22.3930   34.8432 H   0  0  0  0  0  0  0  0  0  0  0  0
   -9.1627  -21.9846   35.4609 H   0  0  0  0  0  0  0  0  0  0  0  0
  -11.8737  -27.1513   32.9665 H   0  0  0  0  0  0  0  0  0  0  0  0
  1  2  1  0
  2  3  1  0
  3  4  1  0
  4  5  2  0
  5  6  1  0
  6  7  2  0
  7  8  1  0
  8  9  2  0
  8 10  1  0
 10 11  1  0
 11 12  1  0
 12 13  1  0
 13 14  1  0
 14 15  2  0
 15 16  1  0
 16 17  2  0
 17 18  1  0
 18 19  2  0
 11 20  1  0
 20 21  1  0
 21 22  1  0
 21 23  1  0
  7 24  1  0
 24 25  2  0
 25  4  1  0
 19 14  1  0
  1 26  1  0
  1 27  1  0
  1 28  1  0
  2 29  1  0
  2 30  1  0
  5 31  1  0
  6 32  1  0
 10 33  1  0
 11 34  1  0
 12 35  1  0
 12 36  1  0
 13 37  1  0
 16 38  1  0
 17 39  1  0
 18 40  1  0
 20 41  1  0
 20 42  1  0
 21 43  1  0
 22 44  1  0
 22 45  1  0
 22 46  1  0
 23 47  1  0
 23 48  1  0
 23 49  1  0
 24 50  1  0
M  END
>  <Energy>  (60) 
-22.246136390575177

>  <compound_id>  (60) 
34625

>  <target_id>  (60) 
1

>  <reference_id>  (60) 
54

>  <inspiration_ids>  (60) 
[82, 54]

>  <energy_score>  (60) 
4.984666841776836

>  <distance_score>  (60) 
2.510717762983873

>  <path>  (60) 
/opt/xchem-fragalysis-2/maxwin/BulkDock/SCRATCH/511015/C34625-P54/C34625-P54.minimised.mol

>  <scratch_subdir>  (60) 
/opt/xchem-fragalysis-2/maxwin/BulkDock/SCRATCH/511015/C34625-P54

>  <fragmenstein_runtime>  (60) 
9.95108413696289

>  <fragmenstein_outcome>  (60) 
too moved

>  <fragmenstein_mode>  (60) 
expansion

>  <fragmenstein_error>  (60) 


$$$$
C34626-P82
     RDKit          3D

 50 51  0  0  0  0  0  0  0  0999 V2000
  -11.8368  -24.9540   33.6277 C   0  0  0  0  0  0  0  0  0  0  0  0
  -10.6862  -25.9330   33.5122 C   0  0  0  0  0  0  0  0  0  0  0  0
  -10.8940  -26.8641   32.4547 O   0  0  0  0  0  0  0  0  0  0  0  0
  -10.5279  -26.6623   31.1609 C   0  0  0  0  0  0  0  0  0  0  0  0
  -11.2695  -27.3620   30.2511 N   0  0  0  0  0  0  0  0  0  0  0  0
  -11.2610  -27.0200   28.9501 C   0  0  0  0  0  0  0  0  0  0  0  0
  -10.3509  -26.1487   28.4339 C   0  0  0  0  0  0  0  0  0  0  0  0
   -9.5531  -25.5005   29.3509 C   0  0  0  0  0  0  0  0  0  0  0  0
   -9.7639  -25.6317   30.7404 C   0  0  0  0  0  0  0  0  0  0  0  0
  -10.2063  -24.3903   31.3804 C   0  0  0  0  0  0  0  0  0  0  0  0
   -9.5568  -23.8288   32.2065 O   0  0  0  0  0  0  0  0  0  0  0  0
  -11.4207  -24.0268   30.7507 N   0  0  0  0  0  0  0  0  0  0  0  0
  -12.2027  -22.8333   30.8303 C   0  0  0  0  0  0  0  0  0  0  0  0
  -11.9717  -22.3328   29.3601 C   0  0  0  0  0  0  0  0  0  0  0  0
  -12.2500  -23.5491   28.5680 N   0  0  0  0  0  0  0  0  0  0  0  0
  -12.3744  -23.8036   27.2522 C   0  0  0  0  0  0  0  0  0  0  0  0
  -11.9790  -22.9602   26.3305 N   0  0  0  0  0  0  0  0  0  0  0  0
  -12.5700  -23.0927   25.1269 C   0  0  0  0  0  0  0  0  0  0  0  0
  -13.5353  -24.0225   24.8513 C   0  0  0  0  0  0  0  0  0  0  0  0
  -13.6737  -24.9960   25.7910 C   0  0  0  0  0  0  0  0  0  0  0  0
  -13.0926  -24.9158   26.9931 N   0  0  0  0  0  0  0  0  0  0  0  0
  -11.9921  -21.9549   32.0412 C   0  0  0  0  0  0  0  0  0  0  0  0
  -13.2890  -21.5917   32.8112 C   0  0  0  0  0  0  0  0  0  0  0  0
  -14.2022  -22.7236   33.2805 C   0  0  0  0  0  0  0  0  0  0  0  0
  -12.8855  -20.6871   33.9835 C   0  0  0  0  0  0  0  0  0  0  0  0
  -12.2904  -24.7092   32.6801 H   0  0  0  0  0  0  0  0  0  0  0  0
  -11.5573  -24.0632   34.1834 H   0  0  0  0  0  0  0  0  0  0  0  0
  -12.7004  -25.3745   34.1281 H   0  0  0  0  0  0  0  0  0  0  0  0
   -9.6768  -25.5225   33.5176 H   0  0  0  0  0  0  0  0  0  0  0  0
  -10.7124  -26.5061   34.4315 H   0  0  0  0  0  0  0  0  0  0  0  0
  -11.9686  -27.5404   28.3146 H   0  0  0  0  0  0  0  0  0  0  0  0
  -10.2965  -25.9432   27.3747 H   0  0  0  0  0  0  0  0  0  0  0  0
   -8.8568  -24.7748   28.9865 H   0  0  0  0  0  0  0  0  0  0  0  0
  -11.7267  -24.7899   30.1558 H   0  0  0  0  0  0  0  0  0  0  0  0
  -13.2300  -23.1988   30.8690 H   0  0  0  0  0  0  0  0  0  0  0  0
  -10.9427  -22.0195   29.1823 H   0  0  0  0  0  0  0  0  0  0  0  0
  -12.6056  -21.4949   29.1095 H   0  0  0  0  0  0  0  0  0  0  0  0
  -13.0658  -24.0360   28.9582 H   0  0  0  0  0  0  0  0  0  0  0  0
  -12.3160  -22.3294   24.3948 H   0  0  0  0  0  0  0  0  0  0  0  0
  -14.0993  -24.0084   23.9302 H   0  0  0  0  0  0  0  0  0  0  0  0
  -14.3254  -25.8473   25.6305 H   0  0  0  0  0  0  0  0  0  0  0  0
  -11.4520  -21.0549   31.7429 H   0  0  0  0  0  0  0  0  0  0  0  0
  -11.3448  -22.4403   32.7655 H   0  0  0  0  0  0  0  0  0  0  0  0
  -13.9529  -21.0575   32.1357 H   0  0  0  0  0  0  0  0  0  0  0  0
  -14.5704  -23.3278   32.4492 H   0  0  0  0  0  0  0  0  0  0  0  0
  -13.7244  -23.3868   33.9905 H   0  0  0  0  0  0  0  0  0  0  0  0
  -15.0872  -22.3086   33.7775 H   0  0  0  0  0  0  0  0  0  0  0  0
  -12.2432  -19.8560   33.6793 H   0  0  0  0  0  0  0  0  0  0  0  0
  -13.7648  -20.2635   34.4759 H   0  0  0  0  0  0  0  0  0  0  0  0
  -12.2847  -21.2350   34.7054 H   0  0  0  0  0  0  0  0  0  0  0  0
  1  2  1  0
  2  3  1  0
  3  4  1  0
  4  5  2  0
  5  6  1  0
  6  7  2  0
  7  8  1  0
  8  9  2  0
  9 10  1  0
 10 11  2  0
 10 12  1  0
 12 13  1  0
 13 14  1  0
 14 15  1  0
 15 16  1  0
 16 17  2  0
 17 18  1  0
 18 19  2  0
 19 20  1  0
 20 21  2  0
 13 22  1  0
 22 23  1  0
 23 24  1  0
 23 25  1  0
  9  4  1  0
 21 16  1  0
  1 26  1  0
  1 27  1  0
  1 28  1  0
  2 29  1  0
  2 30  1  0
  6 31  1  0
  7 32  1  0
  8 33  1  0
 12 34  1  0
 13 35  1  0
 14 36  1  0
 14 37  1  0
 15 38  1  0
 18 39  1  0
 19 40  1  0
 20 41  1  0
 22 42  1  0
 22 43  1  0
 23 44  1  0
 24 45  1  0
 24 46  1  0
 24 47  1  0
 25 48  1  0
 25 49  1  0
 25 50  1  0
M  END
>  <Energy>  (61) 
57.20555481179462

>  <compound_id>  (61) 
34626

>  <target_id>  (61) 
1

>  <reference_id>  (61) 
82

>  <inspiration_ids>  (61) 
[82, 54]

>  <energy_score>  (61) 
52.431494090724016

>  <distance_score>  (61) 
3.261942000692872

>  <path>  (61) 
/opt/xchem-fragalysis-2/maxwin/BulkDock/SCRATCH/511015/C34626-P82/C34626-P82.minimised.mol

>  <scratch_subdir>  (61) 
/opt/xchem-fragalysis-2/maxwin/BulkDock/SCRATCH/511015/C34626-P82

>  <fragmenstein_runtime>  (61) 
24.151528120040894

>  <fragmenstein_outcome>  (61) 
too moved

>  <fragmenstein_mode>  (61) 
expansion

>  <fragmenstein_error>  (61) 


$$$$
C34626-P54
     RDKit          3D

 50 51  0  0  0  0  0  0  0  0999 V2000
  -12.8525  -29.1238   33.0937 C   0  0  0  0  0  0  0  0  0  0  0  0
  -13.1704  -27.6532   32.9425 C   0  0  0  0  0  0  0  0  0  0  0  0
  -12.0103  -26.8121   32.7136 O   0  0  0  0  0  0  0  0  0  0  0  0
  -11.7108  -26.6338   31.3931 C   0  0  0  0  0  0  0  0  0  0  0  0
  -12.1667  -27.6082   30.5776 N   0  0  0  0  0  0  0  0  0  0  0  0
  -11.8586  -27.5701   29.2725 C   0  0  0  0  0  0  0  0  0  0  0  0
  -11.1222  -26.5662   28.7025 C   0  0  0  0  0  0  0  0  0  0  0  0
  -10.6807  -25.5450   29.5387 C   0  0  0  0  0  0  0  0  0  0  0  0
  -10.9419  -25.5816   30.9153 C   0  0  0  0  0  0  0  0  0  0  0  0
  -10.3695  -24.4188   31.6573 C   0  0  0  0  0  0  0  0  0  0  0  0
   -9.3182  -24.4345   32.1447 O   0  0  0  0  0  0  0  0  0  0  0  0
  -11.3807  -23.2853   31.5236 N   0  0  0  0  0  0  0  0  0  0  0  0
  -11.2789  -21.8858   31.8801 C   0  0  0  0  0  0  0  0  0  0  0  0
  -10.8347  -21.2368   30.5818 C   0  0  0  0  0  0  0  0  0  0  0  0
  -11.9269  -21.3429   29.6257 N   0  0  0  0  0  0  0  0  0  0  0  0
  -11.8315  -22.4235   28.7764 C   0  0  0  0  0  0  0  0  0  0  0  0
  -10.9575  -22.4055   27.7769 N   0  0  0  0  0  0  0  0  0  0  0  0
  -11.1956  -23.2741   26.7829 C   0  0  0  0  0  0  0  0  0  0  0  0
  -12.2256  -24.1842   26.7954 C   0  0  0  0  0  0  0  0  0  0  0  0
  -13.0037  -24.1854   27.9198 C   0  0  0  0  0  0  0  0  0  0  0  0
  -12.8095  -23.3329   28.9355 N   0  0  0  0  0  0  0  0  0  0  0  0
  -10.6267  -21.4167   33.1668 C   0  0  0  0  0  0  0  0  0  0  0  0
  -11.2010  -20.0534   33.6892 C   0  0  0  0  0  0  0  0  0  0  0  0
  -12.6710  -20.0138   34.0902 C   0  0  0  0  0  0  0  0  0  0  0  0
  -11.0236  -18.8849   32.7272 C   0  0  0  0  0  0  0  0  0  0  0  0
  -13.7353  -29.6717   33.4382 H   0  0  0  0  0  0  0  0  0  0  0  0
  -12.5472  -29.5621   32.1426 H   0  0  0  0  0  0  0  0  0  0  0  0
  -12.0518  -29.2645   33.8249 H   0  0  0  0  0  0  0  0  0  0  0  0
  -13.9614  -27.4703   32.2032 H   0  0  0  0  0  0  0  0  0  0  0  0
  -13.5990  -27.3588   33.9048 H   0  0  0  0  0  0  0  0  0  0  0  0
  -12.2270  -28.4057   28.6838 H   0  0  0  0  0  0  0  0  0  0  0  0
  -10.8658  -26.5878   27.6501 H   0  0  0  0  0  0  0  0  0  0  0  0
  -10.0627  -24.7453   29.1313 H   0  0  0  0  0  0  0  0  0  0  0  0
  -12.1709  -23.5995   30.9633 H   0  0  0  0  0  0  0  0  0  0  0  0
  -12.3069  -21.5734   31.9938 H   0  0  0  0  0  0  0  0  0  0  0  0
  -10.6733  -20.1726   30.6709 H   0  0  0  0  0  0  0  0  0  0  0  0
   -9.9290  -21.7168   30.2051 H   0  0  0  0  0  0  0  0  0  0  0  0
  -12.8017  -21.5169   30.1128 H   0  0  0  0  0  0  0  0  0  0  0  0
  -10.5178  -23.2077   25.9379 H   0  0  0  0  0  0  0  0  0  0  0  0
  -12.4067  -24.8846   25.9970 H   0  0  0  0  0  0  0  0  0  0  0  0
  -13.8311  -24.8790   28.0376 H   0  0  0  0  0  0  0  0  0  0  0  0
  -10.7733  -22.1656   33.9523 H   0  0  0  0  0  0  0  0  0  0  0  0
   -9.5428  -21.3266   33.0253 H   0  0  0  0  0  0  0  0  0  0  0  0
  -10.6637  -19.8454   34.6082 H   0  0  0  0  0  0  0  0  0  0  0  0
  -13.3192  -20.0840   33.2220 H   0  0  0  0  0  0  0  0  0  0  0  0
  -12.9158  -20.7697   34.8329 H   0  0  0  0  0  0  0  0  0  0  0  0
  -12.9234  -19.0397   34.5204 H   0  0  0  0  0  0  0  0  0  0  0  0
  -11.7566  -18.9393   31.9223 H   0  0  0  0  0  0  0  0  0  0  0  0
  -11.1859  -17.9292   33.2381 H   0  0  0  0  0  0  0  0  0  0  0  0
  -10.0322  -18.8644   32.2827 H   0  0  0  0  0  0  0  0  0  0  0  0
  1  2  1  0
  2  3  1  0
  3  4  1  0
  4  5  2  0
  5  6  1  0
  6  7  2  0
  7  8  1  0
  8  9  2  0
  9 10  1  0
 10 11  2  0
 10 12  1  0
 12 13  1  0
 13 14  1  0
 14 15  1  0
 15 16  1  0
 16 17  2  0
 17 18  1  0
 18 19  2  0
 19 20  1  0
 20 21  2  0
 13 22  1  0
 22 23  1  0
 23 24  1  0
 23 25  1  0
  9  4  1  0
 21 16  1  0
  1 26  1  0
  1 27  1  0
  1 28  1  0
  2 29  1  0
  2 30  1  0
  6 31  1  0
  7 32  1  0
  8 33  1  0
 12 34  1  0
 13 35  1  0
 14 36  1  0
 14 37  1  0
 15 38  1  0
 18 39  1  0
 19 40  1  0
 20 41  1  0
 22 42  1  0
 22 43  1  0
 23 44  1  0
 24 45  1  0
 24 46  1  0
 24 47  1  0
 25 48  1  0
 25 49  1  0
 25 50  1  0
M  END
>  <Energy>  (62) 
-0.425025198876821

>  <compound_id>  (62) 
34626

>  <target_id>  (62) 
1

>  <reference_id>  (62) 
54

>  <inspiration_ids>  (62) 
[82, 54]

>  <energy_score>  (62) 
6.363046038220062

>  <distance_score>  (62) 
2.4736128533714004

>  <path>  (62) 
/opt/xchem-fragalysis-2/maxwin/BulkDock/SCRATCH/511015/C34626-P54/C34626-P54.minimised.mol

>  <scratch_subdir>  (62) 
/opt/xchem-fragalysis-2/maxwin/BulkDock/SCRATCH/511015/C34626-P54

>  <fragmenstein_runtime>  (62) 
11.222932577133179

>  <fragmenstein_outcome>  (62) 
too moved

>  <fragmenstein_mode>  (62) 
expansion

>  <fragmenstein_error>  (62) 


$$$$
C34627-P82
     RDKit          3D

 46 47  0  0  0  0  0  0  0  0999 V2000
  -12.2127  -24.8535   33.0582 C   0  0  0  0  0  0  0  0  0  0  0  0
  -11.2182  -23.7539   32.9776 C   0  0  0  0  0  0  0  0  0  0  0  0
   -9.9040  -24.3496   32.4981 C   0  0  0  0  0  0  0  0  0  0  0  0
  -11.6492  -22.4449   32.3415 C   0  0  0  0  0  0  0  0  0  0  0  0
  -12.5713  -22.4720   31.1366 C   0  0  0  0  0  0  0  0  0  0  0  0
  -12.0326  -23.0329   29.8203 C   0  0  0  0  0  0  0  0  0  0  0  0
  -11.8798  -24.4705   29.8069 N   0  0  0  0  0  0  0  0  0  0  0  0
  -11.7520  -24.9934   28.5270 C   0  0  0  0  0  0  0  0  0  0  0  0
  -12.1347  -26.2681   28.3830 N   0  0  0  0  0  0  0  0  0  0  0  0
  -12.1618  -26.7655   27.1389 C   0  0  0  0  0  0  0  0  0  0  0  0
  -11.8552  -26.0307   26.0288 C   0  0  0  0  0  0  0  0  0  0  0  0
  -11.4664  -24.7404   26.2728 C   0  0  0  0  0  0  0  0  0  0  0  0
  -11.3758  -24.2159   27.5042 N   0  0  0  0  0  0  0  0  0  0  0  0
  -13.9028  -22.8537   31.5522 N   0  0  0  0  0  0  0  0  0  0  0  0
  -14.9450  -22.0966   32.1640 C   0  0  0  0  0  0  0  0  0  0  0  0
  -15.0185  -20.9311   32.4198 O   0  0  0  0  0  0  0  0  0  0  0  0
  -16.0450  -22.9456   32.6225 C   0  0  0  0  0  0  0  0  0  0  0  0
  -17.2543  -23.0014   31.9515 C   0  0  0  0  0  0  0  0  0  0  0  0
  -18.1763  -23.9595   32.3612 C   0  0  0  0  0  0  0  0  0  0  0  0
  -17.8598  -24.8115   33.4290 C   0  0  0  0  0  0  0  0  0  0  0  0
  -18.8562  -25.8744   33.8398 C   0  0  0  0  0  0  0  0  0  0  0  0
  -19.3211  -26.6061   32.7832 F   0  0  0  0  0  0  0  0  0  0  0  0
  -19.9700  -25.3470   34.4291 F   0  0  0  0  0  0  0  0  0  0  0  0
  -16.7009  -24.7074   34.1372 N   0  0  0  0  0  0  0  0  0  0  0  0
  -15.8252  -23.7697   33.7183 C   0  0  0  0  0  0  0  0  0  0  0  0
  -13.1885  -24.5147   33.3856 H   0  0  0  0  0  0  0  0  0  0  0  0
  -11.8385  -25.5220   33.8279 H   0  0  0  0  0  0  0  0  0  0  0  0
  -12.2787  -25.3990   32.1260 H   0  0  0  0  0  0  0  0  0  0  0  0
  -11.1355  -23.4882   34.0209 H   0  0  0  0  0  0  0  0  0  0  0  0
   -9.6688  -25.2796   33.0281 H   0  0  0  0  0  0  0  0  0  0  0  0
   -9.9084  -24.5822   31.4328 H   0  0  0  0  0  0  0  0  0  0  0  0
   -9.0910  -23.6653   32.7137 H   0  0  0  0  0  0  0  0  0  0  0  0
  -10.7886  -21.8126   32.1221 H   0  0  0  0  0  0  0  0  0  0  0  0
  -12.1759  -21.8774   33.1264 H   0  0  0  0  0  0  0  0  0  0  0  0
  -12.6603  -21.4273   30.9111 H   0  0  0  0  0  0  0  0  0  0  0  0
  -12.6938  -22.7001   29.0167 H   0  0  0  0  0  0  0  0  0  0  0  0
  -11.0800  -22.5554   29.5886 H   0  0  0  0  0  0  0  0  0  0  0  0
  -12.6782  -24.9746   30.1866 H   0  0  0  0  0  0  0  0  0  0  0  0
  -12.4587  -27.8066   27.0611 H   0  0  0  0  0  0  0  0  0  0  0  0
  -11.9100  -26.4481   25.0379 H   0  0  0  0  0  0  0  0  0  0  0  0
  -11.2072  -24.0693   25.4606 H   0  0  0  0  0  0  0  0  0  0  0  0
  -14.2257  -23.8181   31.4170 H   0  0  0  0  0  0  0  0  0  0  0  0
  -17.4520  -22.3639   31.0980 H   0  0  0  0  0  0  0  0  0  0  0  0
  -19.1224  -24.0701   31.8385 H   0  0  0  0  0  0  0  0  0  0  0  0
  -18.4021  -26.5723   34.5496 H   0  0  0  0  0  0  0  0  0  0  0  0
  -14.9078  -23.7112   34.2931 H   0  0  0  0  0  0  0  0  0  0  0  0
  1  2  1  0
  2  3  1  0
  2  4  1  0
  4  5  1  0
  5  6  1  0
  6  7  1  0
  7  8  1  0
  8  9  2  0
  9 10  1  0
 10 11  2  0
 11 12  1  0
 12 13  2  0
  5 14  1  0
 14 15  1  0
 15 16  2  0
 15 17  1  0
 17 18  2  0
 18 19  1  0
 19 20  2  0
 20 21  1  0
 21 22  1  0
 21 23  1  0
 20 24  1  0
 24 25  2  0
 13  8  1  0
 25 17  1  0
  1 26  1  0
  1 27  1  0
  1 28  1  0
  2 29  1  0
  3 30  1  0
  3 31  1  0
  3 32  1  0
  4 33  1  0
  4 34  1  0
  5 35  1  0
  6 36  1  0
  6 37  1  0
  7 38  1  0
 10 39  1  0
 11 40  1  0
 12 41  1  0
 14 42  1  0
 18 43  1  0
 19 44  1  0
 21 45  1  0
 25 46  1  0
M  END
>  <Energy>  (63) 
19.943255001540315

>  <compound_id>  (63) 
34627

>  <target_id>  (63) 
1

>  <reference_id>  (63) 
82

>  <inspiration_ids>  (63) 
[82, 54]

>  <energy_score>  (63) 
-7.998401343461751

>  <distance_score>  (63) 
4.363040231640815

>  <path>  (63) 
/opt/xchem-fragalysis-2/maxwin/BulkDock/SCRATCH/511015/C34627-P82/C34627-P82.minimised.mol

>  <scratch_subdir>  (63) 
/opt/xchem-fragalysis-2/maxwin/BulkDock/SCRATCH/511015/C34627-P82

>  <fragmenstein_runtime>  (63) 
16.563807010650635

>  <fragmenstein_outcome>  (63) 
too moved

>  <fragmenstein_mode>  (63) 
expansion

>  <fragmenstein_error>  (63) 


$$$$
C34627-P54
     RDKit          3D

 46 47  0  0  0  0  0  0  0  0999 V2000
   -8.9205  -24.3229   33.4097 C   0  0  0  0  0  0  0  0  0  0  0  0
   -9.2723  -22.9218   33.8281 C   0  0  0  0  0  0  0  0  0  0  0  0
   -8.0354  -22.0717   33.7008 C   0  0  0  0  0  0  0  0  0  0  0  0
  -10.4713  -22.2260   33.1754 C   0  0  0  0  0  0  0  0  0  0  0  0
  -10.8692  -22.4091   31.6931 C   0  0  0  0  0  0  0  0  0  0  0  0
   -9.7630  -22.0720   30.7487 C   0  0  0  0  0  0  0  0  0  0  0  0
   -9.2800  -23.0615   29.8005 N   0  0  0  0  0  0  0  0  0  0  0  0
  -10.0865  -23.3070   28.7104 C   0  0  0  0  0  0  0  0  0  0  0  0
  -10.8430  -22.3325   28.2033 N   0  0  0  0  0  0  0  0  0  0  0  0
  -11.6505  -22.6716   27.1928 C   0  0  0  0  0  0  0  0  0  0  0  0
  -11.7911  -23.9462   26.7168 C   0  0  0  0  0  0  0  0  0  0  0  0
  -10.9491  -24.8689   27.2671 C   0  0  0  0  0  0  0  0  0  0  0  0
  -10.0971  -24.5692   28.2549 N   0  0  0  0  0  0  0  0  0  0  0  0
  -11.4838  -23.6318   31.3166 N   0  0  0  0  0  0  0  0  0  0  0  0
  -10.8874  -24.9931   31.0699 C   0  0  0  0  0  0  0  0  0  0  0  0
   -9.7892  -25.3353   31.0562 O   0  0  0  0  0  0  0  0  0  0  0  0
  -11.8770  -26.0309   30.9237 C   0  0  0  0  0  0  0  0  0  0  0  0
  -12.8132  -26.0149   29.9103 C   0  0  0  0  0  0  0  0  0  0  0  0
  -13.7393  -27.0364   29.8916 C   0  0  0  0  0  0  0  0  0  0  0  0
  -13.6955  -28.0140   30.8929 C   0  0  0  0  0  0  0  0  0  0  0  0
  -14.7055  -29.1465   30.8567 C   0  0  0  0  0  0  0  0  0  0  0  0
  -15.9487  -28.7419   31.2480 F   0  0  0  0  0  0  0  0  0  0  0  0
  -14.8693  -29.6647   29.6037 F   0  0  0  0  0  0  0  0  0  0  0  0
  -12.8081  -27.9846   31.9242 N   0  0  0  0  0  0  0  0  0  0  0  0
  -11.9032  -27.0029   31.9085 C   0  0  0  0  0  0  0  0  0  0  0  0
   -8.4065  -24.3284   32.4534 H   0  0  0  0  0  0  0  0  0  0  0  0
   -9.7880  -24.9681   33.3813 H   0  0  0  0  0  0  0  0  0  0  0  0
   -8.2303  -24.7788   34.1220 H   0  0  0  0  0  0  0  0  0  0  0  0
   -9.5085  -22.9566   34.9001 H   0  0  0  0  0  0  0  0  0  0  0  0
   -8.2732  -21.0414   33.4269 H   0  0  0  0  0  0  0  0  0  0  0  0
   -7.5355  -22.0554   34.6668 H   0  0  0  0  0  0  0  0  0  0  0  0
   -7.3277  -22.4595   32.9658 H   0  0  0  0  0  0  0  0  0  0  0  0
  -11.3252  -22.4392   33.8010 H   0  0  0  0  0  0  0  0  0  0  0  0
  -10.3576  -21.1414   33.3261 H   0  0  0  0  0  0  0  0  0  0  0  0
  -11.6620  -21.6646   31.5315 H   0  0  0  0  0  0  0  0  0  0  0  0
  -10.1041  -21.1846   30.2054 H   0  0  0  0  0  0  0  0  0  0  0  0
   -8.8976  -21.8427   31.3565 H   0  0  0  0  0  0  0  0  0  0  0  0
   -9.0262  -23.9649   30.2050 H   0  0  0  0  0  0  0  0  0  0  0  0
  -12.2032  -21.8585   26.7518 H   0  0  0  0  0  0  0  0  0  0  0  0
  -12.5069  -24.1880   25.9492 H   0  0  0  0  0  0  0  0  0  0  0  0
  -10.9390  -25.9031   26.9387 H   0  0  0  0  0  0  0  0  0  0  0  0
  -12.4818  -23.7036   31.3353 H   0  0  0  0  0  0  0  0  0  0  0  0
  -12.8306  -25.2310   29.1649 H   0  0  0  0  0  0  0  0  0  0  0  0
  -14.4916  -27.0900   29.1080 H   0  0  0  0  0  0  0  0  0  0  0  0
  -14.3930  -29.9621   31.5156 H   0  0  0  0  0  0  0  0  0  0  0  0
  -11.2054  -27.0051   32.7400 H   0  0  0  0  0  0  0  0  0  0  0  0
  1  2  1  0
  2  3  1  0
  2  4  1  0
  4  5  1  0
  5  6  1  0
  6  7  1  0
  7  8  1  0
  8  9  2  0
  9 10  1  0
 10 11  2  0
 11 12  1  0
 12 13  2  0
  5 14  1  0
 14 15  1  0
 15 16  2  0
 15 17  1  0
 17 18  2  0
 18 19  1  0
 19 20  2  0
 20 21  1  0
 21 22  1  0
 21 23  1  0
 20 24  1  0
 24 25  2  0
 13  8  1  0
 25 17  1  0
  1 26  1  0
  1 27  1  0
  1 28  1  0
  2 29  1  0
  3 30  1  0
  3 31  1  0
  3 32  1  0
  4 33  1  0
  4 34  1  0
  5 35  1  0
  6 36  1  0
  6 37  1  0
  7 38  1  0
 10 39  1  0
 11 40  1  0
 12 41  1  0
 14 42  1  0
 18 43  1  0
 19 44  1  0
 21 45  1  0
 25 46  1  0
M  END
>  <Energy>  (64) 
44.562577219469837

>  <compound_id>  (64) 
34627

>  <target_id>  (64) 
1

>  <reference_id>  (64) 
54

>  <inspiration_ids>  (64) 
[82, 54]

>  <energy_score>  (64) 
3.52322146683764

>  <distance_score>  (64) 
2.2393275369117283

>  <path>  (64) 
/opt/xchem-fragalysis-2/maxwin/BulkDock/SCRATCH/511015/C34627-P54/C34627-P54.minimised.mol

>  <scratch_subdir>  (64) 
/opt/xchem-fragalysis-2/maxwin/BulkDock/SCRATCH/511015/C34627-P54

>  <fragmenstein_runtime>  (64) 
9.478193759918213

>  <fragmenstein_outcome>  (64) 
too moved

>  <fragmenstein_mode>  (64) 
expansion

>  <fragmenstein_error>  (64) 


$$$$
C34628-P82
     RDKit          3D

 50 51  0  0  0  0  0  0  0  0999 V2000
  -12.9861  -24.8817   29.7174 C   0  0  0  0  0  0  0  0  0  0  0  0
  -13.3612  -24.4729   31.0218 O   0  0  0  0  0  0  0  0  0  0  0  0
  -14.2982  -23.4077   31.2745 C   0  0  0  0  0  0  0  0  0  0  0  0
  -15.6527  -22.9534   31.9593 C   0  0  0  0  0  0  0  0  0  0  0  0
  -16.2233  -23.6544   33.0170 C   0  0  0  0  0  0  0  0  0  0  0  0
  -16.6814  -23.0408   34.1390 N   0  0  0  0  0  0  0  0  0  0  0  0
  -16.3461  -21.7334   34.2862 C   0  0  0  0  0  0  0  0  0  0  0  0
  -15.6958  -21.0062   33.3015 C   0  0  0  0  0  0  0  0  0  0  0  0
  -14.2488  -20.9015   33.6286 C   0  0  0  0  0  0  0  0  0  0  0  0
  -13.5087  -20.0511   34.7643 O   0  0  0  0  0  0  0  0  0  0  0  0
  -13.4328  -21.4749   33.1930 N   0  0  0  0  0  0  0  0  0  0  0  0
  -11.9504  -21.7991   33.3438 C   0  0  0  0  0  0  0  0  0  0  0  0
  -11.1757  -21.5431   32.0346 C   0  0  0  0  0  0  0  0  0  0  0  0
  -11.8280  -22.2600   30.9588 N   0  0  0  0  0  0  0  0  0  0  0  0
  -11.3266  -22.5049   29.6910 C   0  0  0  0  0  0  0  0  0  0  0  0
  -11.8080  -21.8620   28.6473 N   0  0  0  0  0  0  0  0  0  0  0  0
  -11.6507  -22.4813   27.4488 C   0  0  0  0  0  0  0  0  0  0  0  0
  -11.0624  -23.7052   27.2254 C   0  0  0  0  0  0  0  0  0  0  0  0
  -10.5349  -24.2656   28.3369 C   0  0  0  0  0  0  0  0  0  0  0  0
  -10.7078  -23.7064   29.5586 N   0  0  0  0  0  0  0  0  0  0  0  0
  -11.8313  -23.3531   33.8023 C   0  0  0  0  0  0  0  0  0  0  0  0
  -10.8374  -24.5039   33.3624 C   0  0  0  0  0  0  0  0  0  0  0  0
  -11.4211  -25.5861   32.5277 C   0  0  0  0  0  0  0  0  0  0  0  0
   -9.4829  -24.3053   32.7296 C   0  0  0  0  0  0  0  0  0  0  0  0
  -15.7981  -21.5533   32.0165 C   0  0  0  0  0  0  0  0  0  0  0  0
  -13.7040  -25.3376   29.0598 H   0  0  0  0  0  0  0  0  0  0  0  0
  -12.7837  -24.0401   29.1036 H   0  0  0  0  0  0  0  0  0  0  0  0
  -12.1819  -25.6162   29.7642 H   0  0  0  0  0  0  0  0  0  0  0  0
  -13.9046  -23.4170   32.2680 H   0  0  0  0  0  0  0  0  0  0  0  0
  -13.9727  -22.5319   30.7204 H   0  0  0  0  0  0  0  0  0  0  0  0
  -16.2212  -24.7350   33.0756 H   0  0  0  0  0  0  0  0  0  0  0  0
  -16.4743  -21.3385   35.2895 H   0  0  0  0  0  0  0  0  0  0  0  0
  -13.0196  -22.0781   32.5335 H   0  0  0  0  0  0  0  0  0  0  0  0
  -11.6129  -21.1342   34.1326 H   0  0  0  0  0  0  0  0  0  0  0  0
  -10.1783  -21.8640   32.2188 H   0  0  0  0  0  0  0  0  0  0  0  0
  -11.1146  -20.4921   31.8491 H   0  0  0  0  0  0  0  0  0  0  0  0
  -11.8579  -23.2534   31.2383 H   0  0  0  0  0  0  0  0  0  0  0  0
  -12.0029  -21.9256   26.5941 H   0  0  0  0  0  0  0  0  0  0  0  0
  -10.9826  -24.1424   26.2427 H   0  0  0  0  0  0  0  0  0  0  0  0
  -10.0103  -25.2146   28.3279 H   0  0  0  0  0  0  0  0  0  0  0  0
  -12.8324  -23.7970   33.8059 H   0  0  0  0  0  0  0  0  0  0  0  0
  -11.6841  -23.2774   34.8764 H   0  0  0  0  0  0  0  0  0  0  0  0
  -10.6905  -25.0677   34.2964 H   0  0  0  0  0  0  0  0  0  0  0  0
  -10.9417  -26.5412   32.7607 H   0  0  0  0  0  0  0  0  0  0  0  0
  -12.4687  -25.6266   32.7628 H   0  0  0  0  0  0  0  0  0  0  0  0
  -11.2520  -25.4479   31.4694 H   0  0  0  0  0  0  0  0  0  0  0  0
   -8.8478  -25.1747   32.9389 H   0  0  0  0  0  0  0  0  0  0  0  0
   -8.9560  -23.4323   33.0727 H   0  0  0  0  0  0  0  0  0  0  0  0
   -9.5499  -24.2682   31.6481 H   0  0  0  0  0  0  0  0  0  0  0  0
  -15.3395  -20.9821   31.2123 H   0  0  0  0  0  0  0  0  0  0  0  0
  1  2  1  0
  2  3  1  0
  3  4  1  0
  4  5  2  0
  5  6  1  0
  6  7  2  0
  7  8  1  0
  8  9  1  0
  9 10  2  0
  9 11  1  0
 11 12  1  0
 12 13  1  0
 13 14  1  0
 14 15  1  0
 15 16  2  0
 16 17  1  0
 17 18  2  0
 18 19  1  0
 19 20  2  0
 12 21  1  0
 21 22  1  0
 22 23  1  0
 22 24  1  0
  8 25  2  0
 25  4  1  0
 20 15  1  0
  1 26  1  0
  1 27  1  0
  1 28  1  0
  3 29  1  0
  3 30  1  0
  5 31  1  0
  7 32  1  0
 11 33  1  0
 12 34  1  0
 13 35  1  0
 13 36  1  0
 14 37  1  0
 17 38  1  0
 18 39  1  0
 19 40  1  0
 21 41  1  0
 21 42  1  0
 22 43  1  0
 23 44  1  0
 23 45  1  0
 23 46  1  0
 24 47  1  0
 24 48  1  0
 24 49  1  0
 25 50  1  0
M  END
>  <Energy>  (65) 
402.82880982850065

>  <compound_id>  (65) 
34628

>  <target_id>  (65) 
1

>  <reference_id>  (65) 
82

>  <inspiration_ids>  (65) 
[82, 54]

>  <energy_score>  (65) 
379.68722101072433

>  <distance_score>  (65) 
3.272247300558888

>  <path>  (65) 
/opt/xchem-fragalysis-2/maxwin/BulkDock/SCRATCH/511015/C34628-P82/C34628-P82.minimised.mol

>  <scratch_subdir>  (65) 
/opt/xchem-fragalysis-2/maxwin/BulkDock/SCRATCH/511015/C34628-P82

>  <fragmenstein_runtime>  (65) 
17.30392336845398

>  <fragmenstein_outcome>  (65) 
too moved

>  <fragmenstein_mode>  (65) 
expansion

>  <fragmenstein_error>  (65) 


$$$$
C34628-P54
     RDKit          3D

 50 51  0  0  0  0  0  0  0  0999 V2000
  -12.2700  -26.5861   26.5644 C   0  0  0  0  0  0  0  0  0  0  0  0
  -13.0687  -25.5495   27.1034 O   0  0  0  0  0  0  0  0  0  0  0  0
  -13.9510  -26.0292   28.1245 C   0  0  0  0  0  0  0  0  0  0  0  0
  -13.1958  -26.4075   29.3508 C   0  0  0  0  0  0  0  0  0  0  0  0
  -13.4426  -27.5363   30.1161 C   0  0  0  0  0  0  0  0  0  0  0  0
  -12.7974  -27.8358   31.2686 N   0  0  0  0  0  0  0  0  0  0  0  0
  -11.8669  -26.9646   31.6817 C   0  0  0  0  0  0  0  0  0  0  0  0
  -11.5587  -25.8303   30.9584 C   0  0  0  0  0  0  0  0  0  0  0  0
  -10.7962  -24.7882   31.6047 C   0  0  0  0  0  0  0  0  0  0  0  0
   -9.8488  -25.0827   32.2125 O   0  0  0  0  0  0  0  0  0  0  0  0
  -11.4878  -23.4163   31.4282 N   0  0  0  0  0  0  0  0  0  0  0  0
  -11.2082  -22.1344   32.0441 C   0  0  0  0  0  0  0  0  0  0  0  0
  -11.1057  -21.1159   30.9193 C   0  0  0  0  0  0  0  0  0  0  0  0
  -10.1304  -21.6223   30.0028 N   0  0  0  0  0  0  0  0  0  0  0  0
  -10.5179  -22.3734   28.9401 C   0  0  0  0  0  0  0  0  0  0  0  0
  -11.4759  -21.9454   28.1242 N   0  0  0  0  0  0  0  0  0  0  0  0
  -11.5773  -22.6035   26.9670 C   0  0  0  0  0  0  0  0  0  0  0  0
  -10.8141  -23.6975   26.6628 C   0  0  0  0  0  0  0  0  0  0  0  0
   -9.9832  -24.1545   27.6449 C   0  0  0  0  0  0  0  0  0  0  0  0
   -9.7974  -23.4900   28.7785 N   0  0  0  0  0  0  0  0  0  0  0  0
  -10.3097  -21.9186   33.2282 C   0  0  0  0  0  0  0  0  0  0  0  0
   -9.2141  -22.8857   33.5644 C   0  0  0  0  0  0  0  0  0  0  0  0
   -8.2228  -23.2095   32.4916 C   0  0  0  0  0  0  0  0  0  0  0  0
   -8.3990  -22.1651   34.5744 C   0  0  0  0  0  0  0  0  0  0  0  0
  -12.2158  -25.5535   29.7864 C   0  0  0  0  0  0  0  0  0  0  0  0
  -11.5366  -26.9509   27.2893 H   0  0  0  0  0  0  0  0  0  0  0  0
  -12.8949  -27.4184   26.2242 H   0  0  0  0  0  0  0  0  0  0  0  0
  -11.7243  -26.2165   25.6979 H   0  0  0  0  0  0  0  0  0  0  0  0
  -14.5434  -26.8661   27.7360 H   0  0  0  0  0  0  0  0  0  0  0  0
  -14.6491  -25.2199   28.3664 H   0  0  0  0  0  0  0  0  0  0  0  0
  -14.2062  -28.2566   29.8303 H   0  0  0  0  0  0  0  0  0  0  0  0
  -11.4167  -27.1808   32.6462 H   0  0  0  0  0  0  0  0  0  0  0  0
  -12.3389  -23.5329   30.8983 H   0  0  0  0  0  0  0  0  0  0  0  0
  -12.1499  -21.7956   32.4552 H   0  0  0  0  0  0  0  0  0  0  0  0
  -10.8318  -20.1256   31.2958 H   0  0  0  0  0  0  0  0  0  0  0  0
  -12.0804  -20.9801   30.4302 H   0  0  0  0  0  0  0  0  0  0  0  0
   -9.4487  -22.2126   30.4599 H   0  0  0  0  0  0  0  0  0  0  0  0
  -12.2928  -22.2116   26.2539 H   0  0  0  0  0  0  0  0  0  0  0  0
  -10.8716  -24.1847   25.7126 H   0  0  0  0  0  0  0  0  0  0  0  0
   -9.3997  -25.0615   27.5350 H   0  0  0  0  0  0  0  0  0  0  0  0
  -10.9499  -21.8627   34.1226 H   0  0  0  0  0  0  0  0  0  0  0  0
   -9.9139  -20.8969   33.1424 H   0  0  0  0  0  0  0  0  0  0  0  0
   -9.6153  -23.7865   34.0333 H   0  0  0  0  0  0  0  0  0  0  0  0
   -8.6132  -23.4488   31.5107 H   0  0  0  0  0  0  0  0  0  0  0  0
   -7.5190  -22.3989   32.3491 H   0  0  0  0  0  0  0  0  0  0  0  0
   -7.6527  -24.0669   32.8684 H   0  0  0  0  0  0  0  0  0  0  0  0
   -8.9374  -22.0980   35.5148 H   0  0  0  0  0  0  0  0  0  0  0  0
   -8.1754  -21.1903   34.1554 H   0  0  0  0  0  0  0  0  0  0  0  0
   -7.4301  -22.6060   34.6891 H   0  0  0  0  0  0  0  0  0  0  0  0
  -12.0323  -24.6438   29.2327 H   0  0  0  0  0  0  0  0  0  0  0  0
  1  2  1  0
  2  3  1  0
  3  4  1  0
  4  5  2  0
  5  6  1  0
  6  7  2  0
  7  8  1  0
  8  9  1  0
  9 10  2  0
  9 11  1  0
 11 12  1  0
 12 13  1  0
 13 14  1  0
 14 15  1  0
 15 16  2  0
 16 17  1  0
 17 18  2  0
 18 19  1  0
 19 20  2  0
 12 21  1  0
 21 22  1  0
 22 23  1  0
 22 24  1  0
  8 25  2  0
 25  4  1  0
 20 15  1  0
  1 26  1  0
  1 27  1  0
  1 28  1  0
  3 29  1  0
  3 30  1  0
  5 31  1  0
  7 32  1  0
 11 33  1  0
 12 34  1  0
 13 35  1  0
 13 36  1  0
 14 37  1  0
 17 38  1  0
 18 39  1  0
 19 40  1  0
 21 41  1  0
 21 42  1  0
 22 43  1  0
 23 44  1  0
 23 45  1  0
 23 46  1  0
 24 47  1  0
 24 48  1  0
 24 49  1  0
 25 50  1  0
M  END
>  <Energy>  (66) 
34.430237290623126

>  <compound_id>  (66) 
34628

>  <target_id>  (66) 
1

>  <reference_id>  (66) 
54

>  <inspiration_ids>  (66) 
[82, 54]

>  <energy_score>  (66) 
27.144500023995306

>  <distance_score>  (66) 
2.1357880780358403

>  <path>  (66) 
/opt/xchem-fragalysis-2/maxwin/BulkDock/SCRATCH/511015/C34628-P54/C34628-P54.minimised.mol

>  <scratch_subdir>  (66) 
/opt/xchem-fragalysis-2/maxwin/BulkDock/SCRATCH/511015/C34628-P54

>  <fragmenstein_runtime>  (66) 
10.591126441955566

>  <fragmenstein_outcome>  (66) 
too moved

>  <fragmenstein_mode>  (66) 
expansion

>  <fragmenstein_error>  (66) 


$$$$
C34629-P82
     RDKit          3D

 47 48  0  0  0  0  0  0  0  0999 V2000
  -18.0860  -26.8386   35.0191 C   0  0  0  0  0  0  0  0  0  0  0  0
  -18.4643  -25.7764   34.1495 O   0  0  0  0  0  0  0  0  0  0  0  0
  -17.4086  -24.9423   33.8336 C   0  0  0  0  0  0  0  0  0  0  0  0
  -17.6908  -23.9084   32.9466 C   0  0  0  0  0  0  0  0  0  0  0  0
  -16.6652  -23.0436   32.5799 C   0  0  0  0  0  0  0  0  0  0  0  0
  -15.4040  -23.2699   33.1098 C   0  0  0  0  0  0  0  0  0  0  0  0
  -14.2468  -22.4710   32.7091 C   0  0  0  0  0  0  0  0  0  0  0  0
  -14.3315  -21.2970   32.9241 O   0  0  0  0  0  0  0  0  0  0  0  0
  -13.1610  -23.2534   32.2069 N   0  0  0  0  0  0  0  0  0  0  0  0
  -11.8669  -22.8636   31.7155 C   0  0  0  0  0  0  0  0  0  0  0  0
  -12.0250  -22.1427   30.3619 C   0  0  0  0  0  0  0  0  0  0  0  0
  -11.2074  -22.4812   29.2134 N   0  0  0  0  0  0  0  0  0  0  0  0
  -11.6843  -23.5079   28.4232 C   0  0  0  0  0  0  0  0  0  0  0  0
  -12.0233  -23.1331   27.1893 N   0  0  0  0  0  0  0  0  0  0  0  0
  -12.3667  -24.0975   26.3235 C   0  0  0  0  0  0  0  0  0  0  0  0
  -12.3482  -25.4300   26.6430 C   0  0  0  0  0  0  0  0  0  0  0  0
  -11.9627  -25.7130   27.9299 C   0  0  0  0  0  0  0  0  0  0  0  0
  -11.6353  -24.7748   28.8335 N   0  0  0  0  0  0  0  0  0  0  0  0
  -10.6492  -23.7801   31.8770 C   0  0  0  0  0  0  0  0  0  0  0  0
  -10.5373  -25.0464   32.6678 C   0  0  0  0  0  0  0  0  0  0  0  0
  -10.6498  -26.2013   31.6990 C   0  0  0  0  0  0  0  0  0  0  0  0
  -11.4821  -25.0625   33.8242 C   0  0  0  0  0  0  0  0  0  0  0  0
  -15.2344  -24.2734   34.0455 C   0  0  0  0  0  0  0  0  0  0  0  0
  -16.2028  -25.1393   34.4077 N   0  0  0  0  0  0  0  0  0  0  0  0
  -17.3189  -27.4740   34.5622 H   0  0  0  0  0  0  0  0  0  0  0  0
  -17.7548  -26.4571   35.9913 H   0  0  0  0  0  0  0  0  0  0  0  0
  -18.9711  -27.4589   35.1908 H   0  0  0  0  0  0  0  0  0  0  0  0
  -18.6864  -23.8015   32.5328 H   0  0  0  0  0  0  0  0  0  0  0  0
  -16.8339  -22.2522   31.8596 H   0  0  0  0  0  0  0  0  0  0  0  0
  -13.4776  -24.2142   32.0730 H   0  0  0  0  0  0  0  0  0  0  0  0
  -11.6458  -22.0363   32.4095 H   0  0  0  0  0  0  0  0  0  0  0  0
  -13.0734  -22.0921   30.0806 H   0  0  0  0  0  0  0  0  0  0  0  0
  -11.7193  -21.1234   30.5740 H   0  0  0  0  0  0  0  0  0  0  0  0
  -11.2123  -21.7035   28.5459 H   0  0  0  0  0  0  0  0  0  0  0  0
  -12.6596  -23.7422   25.3399 H   0  0  0  0  0  0  0  0  0  0  0  0
  -12.6137  -26.1982   25.9333 H   0  0  0  0  0  0  0  0  0  0  0  0
  -11.8972  -26.7339   28.2907 H   0  0  0  0  0  0  0  0  0  0  0  0
  -10.2656  -24.0380   30.8909 H   0  0  0  0  0  0  0  0  0  0  0  0
   -9.9012  -23.1590   32.3780 H   0  0  0  0  0  0  0  0  0  0  0  0
   -9.5183  -25.1046   33.0753 H   0  0  0  0  0  0  0  0  0  0  0  0
  -10.7218  -27.1469   32.2255 H   0  0  0  0  0  0  0  0  0  0  0  0
   -9.7708  -26.2575   31.0478 H   0  0  0  0  0  0  0  0  0  0  0  0
  -11.5184  -26.0767   31.0501 H   0  0  0  0  0  0  0  0  0  0  0  0
  -12.4839  -25.3334   33.5097 H   0  0  0  0  0  0  0  0  0  0  0  0
  -11.1188  -25.7724   34.5674 H   0  0  0  0  0  0  0  0  0  0  0  0
  -11.5636  -24.0861   34.3060 H   0  0  0  0  0  0  0  0  0  0  0  0
  -14.2742  -24.4408   34.5150 H   0  0  0  0  0  0  0  0  0  0  0  0
  1  2  1  0
  2  3  1  0
  3  4  2  0
  4  5  1  0
  5  6  2  0
  6  7  1  0
  7  8  2  0
  7  9  1  0
  9 10  1  0
 10 11  1  0
 11 12  1  0
 12 13  1  0
 13 14  2  0
 14 15  1  0
 15 16  2  0
 16 17  1  0
 17 18  2  0
 10 19  1  0
 19 20  1  0
 20 21  1  0
 20 22  1  0
  6 23  1  0
 23 24  2  0
 24  3  1  0
 18 13  1  0
  1 25  1  0
  1 26  1  0
  1 27  1  0
  4 28  1  0
  5 29  1  0
  9 30  1  0
 10 31  1  0
 11 32  1  0
 11 33  1  0
 12 34  1  0
 15 35  1  0
 16 36  1  0
 17 37  1  0
 19 38  1  0
 19 39  1  0
 20 40  1  0
 21 41  1  0
 21 42  1  0
 21 43  1  0
 22 44  1  0
 22 45  1  0
 22 46  1  0
 23 47  1  0
M  END
>  <Energy>  (67) 
-21.005378441147162

>  <compound_id>  (67) 
34629

>  <target_id>  (67) 
1

>  <reference_id>  (67) 
82

>  <inspiration_ids>  (67) 
[82, 54]

>  <energy_score>  (67) 
-0.7860462185379333

>  <distance_score>  (67) 
3.826224671362493

>  <path>  (67) 
/opt/xchem-fragalysis-2/maxwin/BulkDock/SCRATCH/511015/C34629-P82/C34629-P82.minimised.mol

>  <scratch_subdir>  (67) 
/opt/xchem-fragalysis-2/maxwin/BulkDock/SCRATCH/511015/C34629-P82

>  <fragmenstein_runtime>  (67) 
9.332975387573242

>  <fragmenstein_outcome>  (67) 
too moved

>  <fragmenstein_mode>  (67) 
expansion

>  <fragmenstein_error>  (67) 


$$$$
C34629-P54
     RDKit          3D

 47 48  0  0  0  0  0  0  0  0999 V2000
  -13.6822  -29.1745   33.0081 C   0  0  0  0  0  0  0  0  0  0  0  0
  -13.7441  -28.6662   31.6802 O   0  0  0  0  0  0  0  0  0  0  0  0
  -12.8305  -27.6630   31.4349 C   0  0  0  0  0  0  0  0  0  0  0  0
  -12.8736  -27.0986   30.1709 C   0  0  0  0  0  0  0  0  0  0  0  0
  -12.0067  -26.0592   29.8809 C   0  0  0  0  0  0  0  0  0  0  0  0
  -11.1596  -25.6056   30.8655 C   0  0  0  0  0  0  0  0  0  0  0  0
  -10.2872  -24.4463   30.6870 C   0  0  0  0  0  0  0  0  0  0  0  0
   -9.3865  -24.5085   29.9539 O   0  0  0  0  0  0  0  0  0  0  0  0
  -10.7595  -23.2952   31.5908 N   0  0  0  0  0  0  0  0  0  0  0  0
  -10.2786  -21.9455   31.7123 C   0  0  0  0  0  0  0  0  0  0  0  0
  -11.3378  -20.9477   31.2221 C   0  0  0  0  0  0  0  0  0  0  0  0
  -12.2934  -21.5374   30.3021 N   0  0  0  0  0  0  0  0  0  0  0  0
  -11.8403  -22.2166   29.1961 C   0  0  0  0  0  0  0  0  0  0  0  0
  -12.7076  -23.0939   28.6831 N   0  0  0  0  0  0  0  0  0  0  0  0
  -12.3769  -23.6839   27.5192 C   0  0  0  0  0  0  0  0  0  0  0  0
  -11.1414  -23.5902   26.9601 C   0  0  0  0  0  0  0  0  0  0  0  0
  -10.2905  -22.7664   27.6370 C   0  0  0  0  0  0  0  0  0  0  0  0
  -10.6268  -22.0237   28.7032 N   0  0  0  0  0  0  0  0  0  0  0  0
   -9.8007  -21.5665   33.1173 C   0  0  0  0  0  0  0  0  0  0  0  0
   -8.7464  -22.4755   33.7374 C   0  0  0  0  0  0  0  0  0  0  0  0
   -7.9585  -23.2886   32.7700 C   0  0  0  0  0  0  0  0  0  0  0  0
   -9.4004  -23.4481   34.6524 C   0  0  0  0  0  0  0  0  0  0  0  0
  -11.1454  -26.2685   32.0724 C   0  0  0  0  0  0  0  0  0  0  0  0
  -11.9789  -27.2724   32.4014 N   0  0  0  0  0  0  0  0  0  0  0  0
  -13.9324  -28.3972   33.7388 H   0  0  0  0  0  0  0  0  0  0  0  0
  -12.7047  -29.6132   33.2271 H   0  0  0  0  0  0  0  0  0  0  0  0
  -14.4305  -29.9679   33.0969 H   0  0  0  0  0  0  0  0  0  0  0  0
  -13.5665  -27.4751   29.4260 H   0  0  0  0  0  0  0  0  0  0  0  0
  -11.9842  -25.6418   28.8904 H   0  0  0  0  0  0  0  0  0  0  0  0
  -11.6248  -23.5508   32.0360 H   0  0  0  0  0  0  0  0  0  0  0  0
   -9.4384  -21.9138   31.0250 H   0  0  0  0  0  0  0  0  0  0  0  0
  -11.9165  -20.5687   32.0732 H   0  0  0  0  0  0  0  0  0  0  0  0
  -10.8841  -20.0621   30.7672 H   0  0  0  0  0  0  0  0  0  0  0  0
  -12.9788  -22.1242   30.7574 H   0  0  0  0  0  0  0  0  0  0  0  0
  -13.1532  -24.2979   27.0732 H   0  0  0  0  0  0  0  0  0  0  0  0
  -10.8457  -24.1263   26.0744 H   0  0  0  0  0  0  0  0  0  0  0  0
   -9.2664  -22.6492   27.3233 H   0  0  0  0  0  0  0  0  0  0  0  0
   -9.3708  -20.5599   33.0507 H   0  0  0  0  0  0  0  0  0  0  0  0
  -10.6593  -21.4699   33.7957 H   0  0  0  0  0  0  0  0  0  0  0  0
   -8.0555  -21.8685   34.3251 H   0  0  0  0  0  0  0  0  0  0  0  0
   -8.4770  -24.1899   32.4413 H   0  0  0  0  0  0  0  0  0  0  0  0
   -7.0633  -23.6401   33.2790 H   0  0  0  0  0  0  0  0  0  0  0  0
   -7.6683  -22.6912   31.9127 H   0  0  0  0  0  0  0  0  0  0  0  0
   -9.7698  -22.9237   35.5302 H   0  0  0  0  0  0  0  0  0  0  0  0
  -10.2063  -23.9081   34.1018 H   0  0  0  0  0  0  0  0  0  0  0  0
   -8.7525  -24.2712   34.9420 H   0  0  0  0  0  0  0  0  0  0  0  0
  -10.4153  -26.0018   32.8343 H   0  0  0  0  0  0  0  0  0  0  0  0
  1  2  1  0
  2  3  1  0
  3  4  2  0
  4  5  1  0
  5  6  2  0
  6  7  1  0
  7  8  2  0
  7  9  1  0
  9 10  1  0
 10 11  1  0
 11 12  1  0
 12 13  1  0
 13 14  2  0
 14 15  1  0
 15 16  2  0
 16 17  1  0
 17 18  2  0
 10 19  1  0
 19 20  1  0
 20 21  1  0
 20 22  1  0
  6 23  1  0
 23 24  2  0
 24  3  1  0
 18 13  1  0
  1 25  1  0
  1 26  1  0
  1 27  1  0
  4 28  1  0
  5 29  1  0
  9 30  1  0
 10 31  1  0
 11 32  1  0
 11 33  1  0
 12 34  1  0
 15 35  1  0
 16 36  1  0
 17 37  1  0
 19 38  1  0
 19 39  1  0
 20 40  1  0
 21 41  1  0
 21 42  1  0
 21 43  1  0
 22 44  1  0
 22 45  1  0
 22 46  1  0
 23 47  1  0
M  END
>  <Energy>  (68) 
-19.62442740320547

>  <compound_id>  (68) 
34629

>  <target_id>  (68) 
1

>  <reference_id>  (68) 
54

>  <inspiration_ids>  (68) 
[82, 54]

>  <energy_score>  (68) 
5.815740997044614

>  <distance_score>  (68) 
2.3592948631405974

>  <path>  (68) 
/opt/xchem-fragalysis-2/maxwin/BulkDock/SCRATCH/511015/C34629-P54/C34629-P54.minimised.mol

>  <scratch_subdir>  (68) 
/opt/xchem-fragalysis-2/maxwin/BulkDock/SCRATCH/511015/C34629-P54

>  <fragmenstein_runtime>  (68) 
7.293609380722046

>  <fragmenstein_outcome>  (68) 
too moved

>  <fragmenstein_mode>  (68) 
expansion

>  <fragmenstein_error>  (68) 


$$$$
C34630-P82
     RDKit          3D

 49 50  0  0  0  0  0  0  0  0999 V2000
  -20.1376  -23.2173   33.9343 C   0  0  0  0  0  0  0  0  0  0  0  0
  -19.3589  -24.1112   32.9815 C   0  0  0  0  0  0  0  0  0  0  0  0
  -17.8863  -24.0969   33.2808 C   0  0  0  0  0  0  0  0  0  0  0  0
  -17.3240  -25.0273   34.1585 C   0  0  0  0  0  0  0  0  0  0  0  0
  -16.0186  -25.0669   34.4980 N   0  0  0  0  0  0  0  0  0  0  0  0
  -15.2352  -24.1307   33.9246 C   0  0  0  0  0  0  0  0  0  0  0  0
  -15.6883  -23.2063   32.9930 C   0  0  0  0  0  0  0  0  0  0  0  0
  -14.7060  -22.3261   32.3465 C   0  0  0  0  0  0  0  0  0  0  0  0
  -14.8929  -21.1469   32.4213 O   0  0  0  0  0  0  0  0  0  0  0  0
  -13.6154  -23.0645   31.8024 N   0  0  0  0  0  0  0  0  0  0  0  0
  -12.3562  -22.6277   31.2606 C   0  0  0  0  0  0  0  0  0  0  0  0
  -12.0498  -23.0459   29.8229 C   0  0  0  0  0  0  0  0  0  0  0  0
  -12.2037  -24.4695   29.6456 N   0  0  0  0  0  0  0  0  0  0  0  0
  -12.0238  -24.9548   28.3671 C   0  0  0  0  0  0  0  0  0  0  0  0
  -11.5695  -24.1644   27.3892 N   0  0  0  0  0  0  0  0  0  0  0  0
  -11.5397  -24.6909   26.1561 C   0  0  0  0  0  0  0  0  0  0  0  0
  -11.8823  -25.9905   25.8790 C   0  0  0  0  0  0  0  0  0  0  0  0
  -12.2935  -26.7344   26.9458 C   0  0  0  0  0  0  0  0  0  0  0  0
  -12.3913  -26.2323   28.1806 N   0  0  0  0  0  0  0  0  0  0  0  0
  -11.2834  -22.8510   32.3198 C   0  0  0  0  0  0  0  0  0  0  0  0
  -10.5446  -24.1907   32.5441 C   0  0  0  0  0  0  0  0  0  0  0  0
  -10.1189  -25.1225   31.4198 C   0  0  0  0  0  0  0  0  0  0  0  0
  -11.3406  -25.0091   33.5393 C   0  0  0  0  0  0  0  0  0  0  0  0
  -17.0398  -23.1539   32.6931 C   0  0  0  0  0  0  0  0  0  0  0  0
  -20.0142  -23.5415   34.9733 H   0  0  0  0  0  0  0  0  0  0  0  0
  -21.2050  -23.2471   33.6941 H   0  0  0  0  0  0  0  0  0  0  0  0
  -19.8033  -22.1765   33.8655 H   0  0  0  0  0  0  0  0  0  0  0  0
  -19.5280  -23.7866   31.9475 H   0  0  0  0  0  0  0  0  0  0  0  0
  -19.7398  -25.1379   33.0427 H   0  0  0  0  0  0  0  0  0  0  0  0
  -17.9364  -25.7893   34.6343 H   0  0  0  0  0  0  0  0  0  0  0  0
  -14.1917  -24.1719   34.2227 H   0  0  0  0  0  0  0  0  0  0  0  0
  -13.8378  -24.0597   31.8371 H   0  0  0  0  0  0  0  0  0  0  0  0
  -12.4448  -21.5425   31.2176 H   0  0  0  0  0  0  0  0  0  0  0  0
  -11.0480  -22.7246   29.5413 H   0  0  0  0  0  0  0  0  0  0  0  0
  -12.7112  -22.5019   29.1476 H   0  0  0  0  0  0  0  0  0  0  0  0
  -13.1177  -24.8132   29.9369 H   0  0  0  0  0  0  0  0  0  0  0  0
  -11.2180  -24.0176   25.3691 H   0  0  0  0  0  0  0  0  0  0  0  0
  -11.8338  -26.4131   24.8922 H   0  0  0  0  0  0  0  0  0  0  0  0
  -12.5734  -27.7769   26.8388 H   0  0  0  0  0  0  0  0  0  0  0  0
  -10.5593  -22.0531   32.1767 H   0  0  0  0  0  0  0  0  0  0  0  0
  -11.7270  -22.5551   33.2838 H   0  0  0  0  0  0  0  0  0  0  0  0
   -9.5960  -23.9137   33.0101 H   0  0  0  0  0  0  0  0  0  0  0  0
   -9.7846  -24.6077   30.5250 H   0  0  0  0  0  0  0  0  0  0  0  0
  -10.9003  -25.8401   31.1560 H   0  0  0  0  0  0  0  0  0  0  0  0
   -9.2711  -25.7301   31.7574 H   0  0  0  0  0  0  0  0  0  0  0  0
  -10.7690  -25.8788   33.8741 H   0  0  0  0  0  0  0  0  0  0  0  0
  -12.2770  -25.3321   33.0868 H   0  0  0  0  0  0  0  0  0  0  0  0
  -11.5937  -24.4157   34.4158 H   0  0  0  0  0  0  0  0  0  0  0  0
  -17.4143  -22.4240   31.9836 H   0  0  0  0  0  0  0  0  0  0  0  0
  1  2  1  0
  2  3  1  0
  3  4  2  0
  4  5  1  0
  5  6  2  0
  6  7  1  0
  7  8  1  0
  8  9  2  0
  8 10  1  0
 10 11  1  0
 11 12  1  0
 12 13  1  0
 13 14  1  0
 14 15  2  0
 15 16  1  0
 16 17  2  0
 17 18  1  0
 18 19  2  0
 11 20  1  0
 20 21  1  0
 21 22  1  0
 21 23  1  0
  7 24  2  0
 24  3  1  0
 19 14  1  0
  1 25  1  0
  1 26  1  0
  1 27  1  0
  2 28  1  0
  2 29  1  0
  4 30  1  0
  6 31  1  0
 10 32  1  0
 11 33  1  0
 12 34  1  0
 12 35  1  0
 13 36  1  0
 16 37  1  0
 17 38  1  0
 18 39  1  0
 20 40  1  0
 20 41  1  0
 21 42  1  0
 22 43  1  0
 22 44  1  0
 22 45  1  0
 23 46  1  0
 23 47  1  0
 23 48  1  0
 24 49  1  0
M  END
>  <Energy>  (69) 
-19.066323711057091

>  <compound_id>  (69) 
34630

>  <target_id>  (69) 
1

>  <reference_id>  (69) 
82

>  <inspiration_ids>  (69) 
[82, 54]

>  <energy_score>  (69) 
-32.64915783867657

>  <distance_score>  (69) 
4.108305130652381

>  <path>  (69) 
/opt/xchem-fragalysis-2/maxwin/BulkDock/SCRATCH/511015/C34630-P82/C34630-P82.minimised.mol

>  <scratch_subdir>  (69) 
/opt/xchem-fragalysis-2/maxwin/BulkDock/SCRATCH/511015/C34630-P82

>  <fragmenstein_runtime>  (69) 
17.598920583724976

>  <fragmenstein_outcome>  (69) 
too moved

>  <fragmenstein_mode>  (69) 
expansion

>  <fragmenstein_error>  (69) 


$$$$
C34630-P54
     RDKit          3D

 49 50  0  0  0  0  0  0  0  0999 V2000
  -15.0083  -28.1951   34.4532 C   0  0  0  0  0  0  0  0  0  0  0  0
  -15.1337  -27.6583   33.0327 C   0  0  0  0  0  0  0  0  0  0  0  0
  -13.8635  -27.5989   32.2228 C   0  0  0  0  0  0  0  0  0  0  0  0
  -12.6999  -28.2787   32.5446 C   0  0  0  0  0  0  0  0  0  0  0  0
  -11.6145  -28.3260   31.7415 N   0  0  0  0  0  0  0  0  0  0  0  0
  -11.6555  -27.6326   30.5902 C   0  0  0  0  0  0  0  0  0  0  0  0
  -12.6531  -26.7414   30.3196 C   0  0  0  0  0  0  0  0  0  0  0  0
  -12.2458  -25.3345   30.0843 C   0  0  0  0  0  0  0  0  0  0  0  0
  -12.8802  -24.6738   29.3609 O   0  0  0  0  0  0  0  0  0  0  0  0
  -11.0307  -24.9655   30.9806 N   0  0  0  0  0  0  0  0  0  0  0  0
  -10.4066  -23.6788   31.2415 C   0  0  0  0  0  0  0  0  0  0  0  0
   -9.3513  -23.2450   30.2405 C   0  0  0  0  0  0  0  0  0  0  0  0
   -9.8872  -22.4798   29.1578 N   0  0  0  0  0  0  0  0  0  0  0  0
  -10.5202  -23.2201   28.1899 C   0  0  0  0  0  0  0  0  0  0  0  0
  -11.5146  -22.5775   27.5819 N   0  0  0  0  0  0  0  0  0  0  0  0
  -12.2485  -23.3071   26.7332 C   0  0  0  0  0  0  0  0  0  0  0  0
  -12.0295  -24.6415   26.4952 C   0  0  0  0  0  0  0  0  0  0  0  0
  -10.9204  -25.1797   27.0891 C   0  0  0  0  0  0  0  0  0  0  0  0
  -10.1477  -24.4904   27.9393 N   0  0  0  0  0  0  0  0  0  0  0  0
   -9.6566  -23.7500   32.5776 C   0  0  0  0  0  0  0  0  0  0  0  0
   -9.9716  -22.5853   33.4870 C   0  0  0  0  0  0  0  0  0  0  0  0
   -9.0903  -22.7573   34.6791 C   0  0  0  0  0  0  0  0  0  0  0  0
   -9.8048  -21.1903   32.9181 C   0  0  0  0  0  0  0  0  0  0  0  0
  -13.8410  -26.8575   31.0404 C   0  0  0  0  0  0  0  0  0  0  0  0
  -14.2869  -27.6152   35.0374 H   0  0  0  0  0  0  0  0  0  0  0  0
  -14.6930  -29.2435   34.4588 H   0  0  0  0  0  0  0  0  0  0  0  0
  -15.9764  -28.1387   34.9615 H   0  0  0  0  0  0  0  0  0  0  0  0
  -15.5550  -26.6468   33.0937 H   0  0  0  0  0  0  0  0  0  0  0  0
  -15.8564  -28.2780   32.4879 H   0  0  0  0  0  0  0  0  0  0  0  0
  -12.6076  -28.8856   33.4411 H   0  0  0  0  0  0  0  0  0  0  0  0
  -10.7763  -27.6908   29.9636 H   0  0  0  0  0  0  0  0  0  0  0  0
  -10.6688  -25.7999   31.4194 H   0  0  0  0  0  0  0  0  0  0  0  0
  -11.2330  -22.9615   31.2771 H   0  0  0  0  0  0  0  0  0  0  0  0
   -8.6259  -22.5928   30.7313 H   0  0  0  0  0  0  0  0  0  0  0  0
   -8.7530  -24.0979   29.8945 H   0  0  0  0  0  0  0  0  0  0  0  0
  -10.5241  -21.7257   29.3945 H   0  0  0  0  0  0  0  0  0  0  0  0
  -13.0616  -22.7799   26.2455 H   0  0  0  0  0  0  0  0  0  0  0  0
  -12.6870  -25.2297   25.8729 H   0  0  0  0  0  0  0  0  0  0  0  0
  -10.6353  -26.2127   26.9247 H   0  0  0  0  0  0  0  0  0  0  0  0
   -9.8777  -24.6889   33.0982 H   0  0  0  0  0  0  0  0  0  0  0  0
   -8.5708  -23.8139   32.4255 H   0  0  0  0  0  0  0  0  0  0  0  0
  -11.0073  -22.6464   33.8050 H   0  0  0  0  0  0  0  0  0  0  0  0
   -9.4404  -22.1152   35.4859 H   0  0  0  0  0  0  0  0  0  0  0  0
   -9.1265  -23.7861   35.0404 H   0  0  0  0  0  0  0  0  0  0  0  0
   -8.0526  -22.4973   34.4493 H   0  0  0  0  0  0  0  0  0  0  0  0
  -10.1904  -20.4490   33.6246 H   0  0  0  0  0  0  0  0  0  0  0  0
  -10.3665  -21.0511   31.9920 H   0  0  0  0  0  0  0  0  0  0  0  0
   -8.7496  -20.9703   32.7494 H   0  0  0  0  0  0  0  0  0  0  0  0
  -14.7082  -26.2641   30.7514 H   0  0  0  0  0  0  0  0  0  0  0  0
  1  2  1  0
  2  3  1  0
  3  4  2  0
  4  5  1  0
  5  6  2  0
  6  7  1  0
  7  8  1  0
  8  9  2  0
  8 10  1  0
 10 11  1  0
 11 12  1  0
 12 13  1  0
 13 14  1  0
 14 15  2  0
 15 16  1  0
 16 17  2  0
 17 18  1  0
 18 19  2  0
 11 20  1  0
 20 21  1  0
 21 22  1  0
 21 23  1  0
  7 24  2  0
 24  3  1  0
 19 14  1  0
  1 25  1  0
  1 26  1  0
  1 27  1  0
  2 28  1  0
  2 29  1  0
  4 30  1  0
  6 31  1  0
 10 32  1  0
 11 33  1  0
 12 34  1  0
 12 35  1  0
 13 36  1  0
 16 37  1  0
 17 38  1  0
 18 39  1  0
 20 40  1  0
 20 41  1  0
 21 42  1  0
 22 43  1  0
 22 44  1  0
 22 45  1  0
 23 46  1  0
 23 47  1  0
 23 48  1  0
 24 49  1  0
M  END
>  <Energy>  (70) 
17.31147599045919

>  <compound_id>  (70) 
34630

>  <target_id>  (70) 
1

>  <reference_id>  (70) 
54

>  <inspiration_ids>  (70) 
[82, 54]

>  <energy_score>  (70) 
32.06403350425511

>  <distance_score>  (70) 
2.5279794202971493

>  <path>  (70) 
/opt/xchem-fragalysis-2/maxwin/BulkDock/SCRATCH/511015/C34630-P54/C34630-P54.minimised.mol

>  <scratch_subdir>  (70) 
/opt/xchem-fragalysis-2/maxwin/BulkDock/SCRATCH/511015/C34630-P54

>  <fragmenstein_runtime>  (70) 
13.158005714416504

>  <fragmenstein_outcome>  (70) 
too moved

>  <fragmenstein_mode>  (70) 
expansion

>  <fragmenstein_error>  (70) 


$$$$
C34631-P82
     RDKit          3D

 43 44  0  0  0  0  0  0  0  0999 V2000
   -9.3943  -25.3707   31.4451 C   0  0  0  0  0  0  0  0  0  0  0  0
  -10.3796  -24.6892   32.3503 C   0  0  0  0  0  0  0  0  0  0  0  0
  -10.3726  -25.4797   33.6491 C   0  0  0  0  0  0  0  0  0  0  0  0
  -11.8209  -24.6466   31.8983 C   0  0  0  0  0  0  0  0  0  0  0  0
  -12.2702  -24.3967   30.4736 C   0  0  0  0  0  0  0  0  0  0  0  0
  -11.9187  -23.0441   29.8015 C   0  0  0  0  0  0  0  0  0  0  0  0
  -11.2221  -23.2264   28.5055 N   0  0  0  0  0  0  0  0  0  0  0  0
  -12.0508  -23.4106   27.3827 C   0  0  0  0  0  0  0  0  0  0  0  0
  -11.8347  -22.6629   26.3353 N   0  0  0  0  0  0  0  0  0  0  0  0
  -12.4762  -22.9378   25.1701 C   0  0  0  0  0  0  0  0  0  0  0  0
  -13.4007  -23.9191   25.0231 C   0  0  0  0  0  0  0  0  0  0  0  0
  -13.4945  -24.7220   26.1033 C   0  0  0  0  0  0  0  0  0  0  0  0
  -12.8447  -24.4852   27.2653 N   0  0  0  0  0  0  0  0  0  0  0  0
  -12.2739  -25.4196   29.4447 N   0  0  0  0  0  0  0  0  0  0  0  0
  -11.6592  -26.6827   29.3896 C   0  0  0  0  0  0  0  0  0  0  0  0
  -11.0377  -27.2804   30.2035 O   0  0  0  0  0  0  0  0  0  0  0  0
  -11.8217  -27.2808   28.0470 C   0  0  0  0  0  0  0  0  0  0  0  0
  -11.1595  -26.7169   26.9604 C   0  0  0  0  0  0  0  0  0  0  0  0
  -11.2541  -27.1851   25.6883 N   0  0  0  0  0  0  0  0  0  0  0  0
  -12.0302  -28.2762   25.5182 C   0  0  0  0  0  0  0  0  0  0  0  0
  -12.6965  -28.9045   26.5532 C   0  0  0  0  0  0  0  0  0  0  0  0
  -13.4686  -29.9658   26.3226 F   0  0  0  0  0  0  0  0  0  0  0  0
  -12.5726  -28.4280   27.8409 C   0  0  0  0  0  0  0  0  0  0  0  0
   -9.4010  -24.9756   30.4300 H   0  0  0  0  0  0  0  0  0  0  0  0
   -9.5406  -26.4444   31.4072 H   0  0  0  0  0  0  0  0  0  0  0  0
   -8.4021  -25.2799   31.8878 H   0  0  0  0  0  0  0  0  0  0  0  0
  -10.0380  -23.6691   32.5434 H   0  0  0  0  0  0  0  0  0  0  0  0
  -11.0727  -25.0696   34.3795 H   0  0  0  0  0  0  0  0  0  0  0  0
  -10.6694  -26.5121   33.4729 H   0  0  0  0  0  0  0  0  0  0  0  0
   -9.3625  -25.5034   34.0573 H   0  0  0  0  0  0  0  0  0  0  0  0
  -12.2823  -25.5742   32.2104 H   0  0  0  0  0  0  0  0  0  0  0  0
  -12.3101  -23.8829   32.5237 H   0  0  0  0  0  0  0  0  0  0  0  0
  -13.3396  -24.2747   30.6509 H   0  0  0  0  0  0  0  0  0  0  0  0
  -11.3176  -22.4394   30.4753 H   0  0  0  0  0  0  0  0  0  0  0  0
  -12.8088  -22.4312   29.6547 H   0  0  0  0  0  0  0  0  0  0  0  0
  -10.7740  -24.1350   28.5913 H   0  0  0  0  0  0  0  0  0  0  0  0
  -12.2770  -22.2415   24.3579 H   0  0  0  0  0  0  0  0  0  0  0  0
  -13.9936  -24.0398   24.1315 H   0  0  0  0  0  0  0  0  0  0  0  0
  -14.1323  -25.5981   26.0851 H   0  0  0  0  0  0  0  0  0  0  0  0
  -12.7914  -25.2656   28.5846 H   0  0  0  0  0  0  0  0  0  0  0  0
  -10.5080  -25.8581   27.0866 H   0  0  0  0  0  0  0  0  0  0  0  0
  -12.1049  -28.6577   24.5050 H   0  0  0  0  0  0  0  0  0  0  0  0
  -13.0271  -28.9908   28.6434 H   0  0  0  0  0  0  0  0  0  0  0  0
  1  2  1  0
  2  3  1  0
  2  4  1  0
  4  5  1  0
  5  6  1  0
  6  7  1  0
  7  8  1  0
  8  9  2  0
  9 10  1  0
 10 11  2  0
 11 12  1  0
 12 13  2  0
  5 14  1  0
 14 15  1  0
 15 16  2  0
 15 17  1  0
 17 18  2  0
 18 19  1  0
 19 20  2  0
 20 21  1  0
 21 22  1  0
 21 23  2  0
 13  8  1  0
 23 17  1  0
  1 24  1  0
  1 25  1  0
  1 26  1  0
  2 27  1  0
  3 28  1  0
  3 29  1  0
  3 30  1  0
  4 31  1  0
  4 32  1  0
  5 33  1  0
  6 34  1  0
  6 35  1  0
  7 36  1  0
 10 37  1  0
 11 38  1  0
 12 39  1  0
 14 40  1  0
 18 41  1  0
 20 42  1  0
 23 43  1  0
M  END
>  <Energy>  (71) 
4.2879732132644524

>  <compound_id>  (71) 
34631

>  <target_id>  (71) 
1

>  <reference_id>  (71) 
82

>  <inspiration_ids>  (71) 
[82, 54]

>  <energy_score>  (71) 
-11.479337485029987

>  <distance_score>  (71) 
4.629953484338676

>  <path>  (71) 
/opt/xchem-fragalysis-2/maxwin/BulkDock/SCRATCH/511015/C34631-P82/C34631-P82.minimised.mol

>  <scratch_subdir>  (71) 
/opt/xchem-fragalysis-2/maxwin/BulkDock/SCRATCH/511015/C34631-P82

>  <fragmenstein_runtime>  (71) 
9.301449537277222

>  <fragmenstein_outcome>  (71) 
too moved

>  <fragmenstein_mode>  (71) 
expansion

>  <fragmenstein_error>  (71) 


$$$$
C34631-P54
     RDKit          3D

 43 44  0  0  0  0  0  0  0  0999 V2000
   -8.5127  -22.8739   31.2731 C   0  0  0  0  0  0  0  0  0  0  0  0
   -8.5858  -22.2180   32.6519 C   0  0  0  0  0  0  0  0  0  0  0  0
   -7.6333  -22.8549   33.6066 C   0  0  0  0  0  0  0  0  0  0  0  0
   -9.9208  -22.1267   33.3317 C   0  0  0  0  0  0  0  0  0  0  0  0
  -11.0473  -22.1891   32.3548 C   0  0  0  0  0  0  0  0  0  0  0  0
  -11.2127  -21.0542   31.3427 C   0  0  0  0  0  0  0  0  0  0  0  0
  -12.2723  -21.3706   30.3951 N   0  0  0  0  0  0  0  0  0  0  0  0
  -11.9238  -22.1574   29.3155 C   0  0  0  0  0  0  0  0  0  0  0  0
  -10.7968  -21.9565   28.6414 N   0  0  0  0  0  0  0  0  0  0  0  0
  -10.6008  -22.7177   27.5538 C   0  0  0  0  0  0  0  0  0  0  0  0
  -11.5019  -23.6272   27.0757 C   0  0  0  0  0  0  0  0  0  0  0  0
  -12.6125  -23.7831   27.8525 C   0  0  0  0  0  0  0  0  0  0  0  0
  -12.8007  -23.1261   29.0145 N   0  0  0  0  0  0  0  0  0  0  0  0
  -11.1734  -23.4989   31.7206 N   0  0  0  0  0  0  0  0  0  0  0  0
  -10.4828  -24.8443   32.0474 C   0  0  0  0  0  0  0  0  0  0  0  0
   -9.6503  -25.0972   32.8225 O   0  0  0  0  0  0  0  0  0  0  0  0
  -11.1169  -25.8879   31.2706 C   0  0  0  0  0  0  0  0  0  0  0  0
  -11.7257  -26.9377   31.9416 C   0  0  0  0  0  0  0  0  0  0  0  0
  -12.4789  -27.8468   31.3096 N   0  0  0  0  0  0  0  0  0  0  0  0
  -12.6075  -27.6854   29.9720 C   0  0  0  0  0  0  0  0  0  0  0  0
  -12.0081  -26.6641   29.2576 C   0  0  0  0  0  0  0  0  0  0  0  0
  -12.1967  -26.5281   27.9463 F   0  0  0  0  0  0  0  0  0  0  0  0
  -11.2276  -25.7520   29.9124 C   0  0  0  0  0  0  0  0  0  0  0  0
   -7.6006  -22.5997   30.7651 H   0  0  0  0  0  0  0  0  0  0  0  0
   -9.2741  -22.5684   30.5684 H   0  0  0  0  0  0  0  0  0  0  0  0
   -8.5120  -23.9552   31.2830 H   0  0  0  0  0  0  0  0  0  0  0  0
   -8.2788  -21.1790   32.5564 H   0  0  0  0  0  0  0  0  0  0  0  0
   -7.6805  -22.3348   34.5651 H   0  0  0  0  0  0  0  0  0  0  0  0
   -7.8352  -23.9151   33.7620 H   0  0  0  0  0  0  0  0  0  0  0  0
   -6.6368  -22.7524   33.2101 H   0  0  0  0  0  0  0  0  0  0  0  0
  -10.0398  -22.9122   34.0868 H   0  0  0  0  0  0  0  0  0  0  0  0
   -9.9820  -21.1852   33.8918 H   0  0  0  0  0  0  0  0  0  0  0  0
  -11.9008  -22.0387   32.9910 H   0  0  0  0  0  0  0  0  0  0  0  0
  -10.3210  -20.8511   30.7836 H   0  0  0  0  0  0  0  0  0  0  0  0
  -11.4690  -20.1265   31.8678 H   0  0  0  0  0  0  0  0  0  0  0  0
  -13.0772  -21.7796   30.8563 H   0  0  0  0  0  0  0  0  0  0  0  0
   -9.6498  -22.5760   27.0627 H   0  0  0  0  0  0  0  0  0  0  0  0
  -11.3290  -24.2019   26.1811 H   0  0  0  0  0  0  0  0  0  0  0  0
  -13.4038  -24.4733   27.5748 H   0  0  0  0  0  0  0  0  0  0  0  0
  -11.9150  -23.6535   31.0461 H   0  0  0  0  0  0  0  0  0  0  0  0
  -11.6161  -27.0845   33.0108 H   0  0  0  0  0  0  0  0  0  0  0  0
  -13.2284  -28.4209   29.4693 H   0  0  0  0  0  0  0  0  0  0  0  0
  -10.7072  -24.9630   29.3895 H   0  0  0  0  0  0  0  0  0  0  0  0
  1  2  1  0
  2  3  1  0
  2  4  1  0
  4  5  1  0
  5  6  1  0
  6  7  1  0
  7  8  1  0
  8  9  2  0
  9 10  1  0
 10 11  2  0
 11 12  1  0
 12 13  2  0
  5 14  1  0
 14 15  1  0
 15 16  2  0
 15 17  1  0
 17 18  2  0
 18 19  1  0
 19 20  2  0
 20 21  1  0
 21 22  1  0
 21 23  2  0
 13  8  1  0
 23 17  1  0
  1 24  1  0
  1 25  1  0
  1 26  1  0
  2 27  1  0
  3 28  1  0
  3 29  1  0
  3 30  1  0
  4 31  1  0
  4 32  1  0
  5 33  1  0
  6 34  1  0
  6 35  1  0
  7 36  1  0
 10 37  1  0
 11 38  1  0
 12 39  1  0
 14 40  1  0
 18 41  1  0
 20 42  1  0
 23 43  1  0
M  END
>  <Energy>  (72) 
5.8212348803541509

>  <compound_id>  (72) 
34631

>  <target_id>  (72) 
1

>  <reference_id>  (72) 
54

>  <inspiration_ids>  (72) 
[82, 54]

>  <energy_score>  (72) 
-3.1355164926269623

>  <distance_score>  (72) 
2.2180426989969724

>  <path>  (72) 
/opt/xchem-fragalysis-2/maxwin/BulkDock/SCRATCH/511015/C34631-P54/C34631-P54.minimised.mol

>  <scratch_subdir>  (72) 
/opt/xchem-fragalysis-2/maxwin/BulkDock/SCRATCH/511015/C34631-P54

>  <fragmenstein_runtime>  (72) 
5.68299412727356

>  <fragmenstein_outcome>  (72) 
too moved

>  <fragmenstein_mode>  (72) 
expansion

>  <fragmenstein_error>  (72) 


$$$$
C34632-P82
     RDKit          3D

 47 48  0  0  0  0  0  0  0  0999 V2000
  -14.3602  -23.8752   32.9226 C   0  0  0  0  0  0  0  0  0  0  0  0
  -13.3364  -24.5928   33.6165 O   0  0  0  0  0  0  0  0  0  0  0  0
  -12.2374  -25.0692   32.9070 C   0  0  0  0  0  0  0  0  0  0  0  0
  -12.3075  -25.3727   31.6044 N   0  0  0  0  0  0  0  0  0  0  0  0
  -11.2361  -25.9802   31.0306 C   0  0  0  0  0  0  0  0  0  0  0  0
  -10.0848  -26.2330   31.7022 C   0  0  0  0  0  0  0  0  0  0  0  0
   -9.9958  -25.7509   33.0031 C   0  0  0  0  0  0  0  0  0  0  0  0
  -11.0042  -24.9275   33.4911 C   0  0  0  0  0  0  0  0  0  0  0  0
  -10.6243  -23.5616   33.0636 C   0  0  0  0  0  0  0  0  0  0  0  0
   -9.5411  -23.4457   32.5813 O   0  0  0  0  0  0  0  0  0  0  0  0
  -11.6679  -22.6314   33.2169 N   0  0  0  0  0  0  0  0  0  0  0  0
  -11.7976  -21.3038   32.7616 C   0  0  0  0  0  0  0  0  0  0  0  0
  -12.3412  -21.6134   31.2999 C   0  0  0  0  0  0  0  0  0  0  0  0
  -11.8792  -22.8486   30.6592 N   0  0  0  0  0  0  0  0  0  0  0  0
  -11.8809  -23.0885   29.3093 C   0  0  0  0  0  0  0  0  0  0  0  0
  -11.8772  -22.1038   28.4373 N   0  0  0  0  0  0  0  0  0  0  0  0
  -11.8570  -22.4833   27.1462 C   0  0  0  0  0  0  0  0  0  0  0  0
  -11.8707  -23.7631   26.6602 C   0  0  0  0  0  0  0  0  0  0  0  0
  -11.8520  -24.7016   27.6295 C   0  0  0  0  0  0  0  0  0  0  0  0
  -11.8418  -24.3753   28.9263 N   0  0  0  0  0  0  0  0  0  0  0  0
  -12.2461  -20.3869   33.9738 C   0  0  0  0  0  0  0  0  0  0  0  0
  -13.5021  -19.5253   34.2833 C   0  0  0  0  0  0  0  0  0  0  0  0
  -13.4965  -18.9245   35.7031 C   0  0  0  0  0  0  0  0  0  0  0  0
  -14.8509  -20.1383   33.9185 C   0  0  0  0  0  0  0  0  0  0  0  0
  -15.3333  -24.3192   33.1464 H   0  0  0  0  0  0  0  0  0  0  0  0
  -14.4115  -22.8683   33.3395 H   0  0  0  0  0  0  0  0  0  0  0  0
  -14.1948  -23.7773   31.8529 H   0  0  0  0  0  0  0  0  0  0  0  0
  -11.3696  -26.3295   30.0158 H   0  0  0  0  0  0  0  0  0  0  0  0
   -9.2665  -26.7491   31.2283 H   0  0  0  0  0  0  0  0  0  0  0  0
   -9.0048  -25.7018   33.4490 H   0  0  0  0  0  0  0  0  0  0  0  0
  -12.4132  -23.0592   33.7484 H   0  0  0  0  0  0  0  0  0  0  0  0
  -10.7876  -20.9494   32.5228 H   0  0  0  0  0  0  0  0  0  0  0  0
  -11.8990  -20.8913   30.6401 H   0  0  0  0  0  0  0  0  0  0  0  0
  -13.4327  -21.6433   31.3101 H   0  0  0  0  0  0  0  0  0  0  0  0
  -12.2362  -23.7158   31.0531 H   0  0  0  0  0  0  0  0  0  0  0  0
  -11.8252  -21.6595   26.4512 H   0  0  0  0  0  0  0  0  0  0  0  0
  -11.8720  -23.9825   25.6052 H   0  0  0  0  0  0  0  0  0  0  0  0
  -11.8402  -25.7614   27.4102 H   0  0  0  0  0  0  0  0  0  0  0  0
  -11.4410  -19.6399   34.0244 H   0  0  0  0  0  0  0  0  0  0  0  0
  -12.1012  -20.9830   34.8772 H   0  0  0  0  0  0  0  0  0  0  0  0
  -13.3727  -18.5887   33.7451 H   0  0  0  0  0  0  0  0  0  0  0  0
  -12.4785  -18.6914   36.0324 H   0  0  0  0  0  0  0  0  0  0  0  0
  -13.9704  -19.5490   36.4529 H   0  0  0  0  0  0  0  0  0  0  0  0
  -14.0608  -17.9831   35.7065 H   0  0  0  0  0  0  0  0  0  0  0  0
  -15.0765  -21.0386   34.4854 H   0  0  0  0  0  0  0  0  0  0  0  0
  -15.6580  -19.4225   34.1103 H   0  0  0  0  0  0  0  0  0  0  0  0
  -14.9097  -20.4175   32.8637 H   0  0  0  0  0  0  0  0  0  0  0  0
  1  2  1  0
  2  3  1  0
  3  4  2  0
  4  5  1  0
  5  6  2  0
  6  7  1  0
  7  8  2  0
  8  9  1  0
  9 10  2  0
  9 11  1  0
 11 12  1  0
 12 13  1  0
 13 14  1  0
 14 15  1  0
 15 16  2  0
 16 17  1  0
 17 18  2  0
 18 19  1  0
 19 20  2  0
 12 21  1  0
 21 22  1  0
 22 23  1  0
 22 24  1  0
  8  3  1  0
 20 15  1  0
  1 25  1  0
  1 26  1  0
  1 27  1  0
  5 28  1  0
  6 29  1  0
  7 30  1  0
 11 31  1  0
 12 32  1  0
 13 33  1  0
 13 34  1  0
 14 35  1  0
 17 36  1  0
 18 37  1  0
 19 38  1  0
 21 39  1  0
 21 40  1  0
 22 41  1  0
 23 42  1  0
 23 43  1  0
 23 44  1  0
 24 45  1  0
 24 46  1  0
 24 47  1  0
M  END
>  <Energy>  (73) 
93.925840634309495

>  <compound_id>  (73) 
34632

>  <target_id>  (73) 
1

>  <reference_id>  (73) 
82

>  <inspiration_ids>  (73) 
[82, 54]

>  <energy_score>  (73) 
112.71535321690766

>  <distance_score>  (73) 
1.5704096540394237

>  <path>  (73) 
/opt/xchem-fragalysis-2/maxwin/BulkDock/SCRATCH/511015/C34632-P82/C34632-P82.minimised.mol

>  <scratch_subdir>  (73) 
/opt/xchem-fragalysis-2/maxwin/BulkDock/SCRATCH/511015/C34632-P82

>  <fragmenstein_runtime>  (73) 
15.499170303344727

>  <fragmenstein_outcome>  (73) 
too moved

>  <fragmenstein_mode>  (73) 
expansion

>  <fragmenstein_error>  (73) 


$$$$
C34632-P54
     RDKit          3D

 47 48  0  0  0  0  0  0  0  0999 V2000
  -11.9861  -27.0755   31.7963 C   0  0  0  0  0  0  0  0  0  0  0  0
  -11.0750  -26.0944   32.3032 O   0  0  0  0  0  0  0  0  0  0  0  0
  -10.5032  -25.2813   31.3553 C   0  0  0  0  0  0  0  0  0  0  0  0
  -10.7485  -25.6378   30.0728 N   0  0  0  0  0  0  0  0  0  0  0  0
  -10.0470  -24.9976   29.1184 C   0  0  0  0  0  0  0  0  0  0  0  0
   -9.0698  -24.0618   29.3716 C   0  0  0  0  0  0  0  0  0  0  0  0
   -8.8353  -23.7069   30.6879 C   0  0  0  0  0  0  0  0  0  0  0  0
   -9.5816  -24.2871   31.7235 C   0  0  0  0  0  0  0  0  0  0  0  0
   -9.9622  -23.2882   32.7895 C   0  0  0  0  0  0  0  0  0  0  0  0
   -9.7908  -23.3598   33.9337 O   0  0  0  0  0  0  0  0  0  0  0  0
  -10.7054  -22.2409   31.9627 N   0  0  0  0  0  0  0  0  0  0  0  0
  -11.4726  -21.1156   32.3692 C   0  0  0  0  0  0  0  0  0  0  0  0
  -12.0176  -20.6807   30.9701 C   0  0  0  0  0  0  0  0  0  0  0  0
  -11.1565  -21.1477   29.8536 N   0  0  0  0  0  0  0  0  0  0  0  0
  -11.6656  -22.0681   28.9593 C   0  0  0  0  0  0  0  0  0  0  0  0
  -11.2105  -21.9386   27.7155 N   0  0  0  0  0  0  0  0  0  0  0  0
  -11.6583  -22.8217   26.8037 C   0  0  0  0  0  0  0  0  0  0  0  0
  -12.4930  -23.8673   27.1017 C   0  0  0  0  0  0  0  0  0  0  0  0
  -12.8706  -23.9434   28.4159 C   0  0  0  0  0  0  0  0  0  0  0  0
  -12.4853  -23.0479   29.3498 N   0  0  0  0  0  0  0  0  0  0  0  0
  -10.9523  -19.9302   33.1659 C   0  0  0  0  0  0  0  0  0  0  0  0
  -12.1012  -18.8967   33.4275 C   0  0  0  0  0  0  0  0  0  0  0  0
  -11.6447  -17.5617   33.9964 C   0  0  0  0  0  0  0  0  0  0  0  0
  -13.2936  -19.4376   34.2119 C   0  0  0  0  0  0  0  0  0  0  0  0
  -12.8100  -26.6151   31.2438 H   0  0  0  0  0  0  0  0  0  0  0  0
  -11.4821  -27.8183   31.1697 H   0  0  0  0  0  0  0  0  0  0  0  0
  -12.4120  -27.6026   32.6553 H   0  0  0  0  0  0  0  0  0  0  0  0
  -10.2613  -25.3033   28.0992 H   0  0  0  0  0  0  0  0  0  0  0  0
   -8.5766  -23.5570   28.5605 H   0  0  0  0  0  0  0  0  0  0  0  0
   -8.2058  -22.8482   30.9063 H   0  0  0  0  0  0  0  0  0  0  0  0
  -10.5898  -22.4437   30.9778 H   0  0  0  0  0  0  0  0  0  0  0  0
  -12.2559  -21.5048   32.9858 H   0  0  0  0  0  0  0  0  0  0  0  0
  -12.0313  -19.6014   30.8645 H   0  0  0  0  0  0  0  0  0  0  0  0
  -13.0451  -21.0164   30.8280 H   0  0  0  0  0  0  0  0  0  0  0  0
  -10.7670  -20.4023   29.2827 H   0  0  0  0  0  0  0  0  0  0  0  0
  -11.3135  -22.6540   25.7881 H   0  0  0  0  0  0  0  0  0  0  0  0
  -12.8321  -24.5752   26.3605 H   0  0  0  0  0  0  0  0  0  0  0  0
  -13.5166  -24.7399   28.7720 H   0  0  0  0  0  0  0  0  0  0  0  0
  -10.5495  -20.2872   34.1168 H   0  0  0  0  0  0  0  0  0  0  0  0
  -10.1467  -19.4514   32.6056 H   0  0  0  0  0  0  0  0  0  0  0  0
  -12.5252  -18.6413   32.4655 H   0  0  0  0  0  0  0  0  0  0  0  0
  -10.8857  -17.1058   33.3548 H   0  0  0  0  0  0  0  0  0  0  0  0
  -12.4792  -16.8537   34.0571 H   0  0  0  0  0  0  0  0  0  0  0  0
  -11.2558  -17.6653   35.0041 H   0  0  0  0  0  0  0  0  0  0  0  0
  -14.0384  -19.8256   33.5218 H   0  0  0  0  0  0  0  0  0  0  0  0
  -13.0140  -20.2318   34.9076 H   0  0  0  0  0  0  0  0  0  0  0  0
  -13.8216  -18.6479   34.7523 H   0  0  0  0  0  0  0  0  0  0  0  0
  1  2  1  0
  2  3  1  0
  3  4  2  0
  4  5  1  0
  5  6  2  0
  6  7  1  0
  7  8  2  0
  8  9  1  0
  9 10  2  0
  9 11  1  0
 11 12  1  0
 12 13  1  0
 13 14  1  0
 14 15  1  0
 15 16  2  0
 16 17  1  0
 17 18  2  0
 18 19  1  0
 19 20  2  0
 12 21  1  0
 21 22  1  0
 22 23  1  0
 22 24  1  0
  8  3  1  0
 20 15  1  0
  1 25  1  0
  1 26  1  0
  1 27  1  0
  5 28  1  0
  6 29  1  0
  7 30  1  0
 11 31  1  0
 12 32  1  0
 13 33  1  0
 13 34  1  0
 14 35  1  0
 17 36  1  0
 18 37  1  0
 19 38  1  0
 21 39  1  0
 21 40  1  0
 22 41  1  0
 23 42  1  0
 23 43  1  0
 23 44  1  0
 24 45  1  0
 24 46  1  0
 24 47  1  0
M  END
>  <Energy>  (74) 
18.761839953786858

>  <compound_id>  (74) 
34632

>  <target_id>  (74) 
1

>  <reference_id>  (74) 
54

>  <inspiration_ids>  (74) 
[82, 54]

>  <energy_score>  (74) 
30.400764738922476

>  <distance_score>  (74) 
1.9989688395622685

>  <path>  (74) 
/opt/xchem-fragalysis-2/maxwin/BulkDock/SCRATCH/511015/C34632-P54/C34632-P54.minimised.mol

>  <scratch_subdir>  (74) 
/opt/xchem-fragalysis-2/maxwin/BulkDock/SCRATCH/511015/C34632-P54

>  <fragmenstein_runtime>  (74) 
5.575579881668091

>  <fragmenstein_outcome>  (74) 
too moved

>  <fragmenstein_mode>  (74) 
expansion

>  <fragmenstein_error>  (74) 


$$$$
C34633-P82
     RDKit          3D

 46 47  0  0  0  0  0  0  0  0999 V2000
  -13.0053  -26.6209   27.3786 C   0  0  0  0  0  0  0  0  0  0  0  0
  -11.8143  -26.4617   28.2550 C   0  0  0  0  0  0  0  0  0  0  0  0
  -10.5828  -26.4716   27.6528 C   0  0  0  0  0  0  0  0  0  0  0  0
   -9.4943  -26.4723   28.4841 C   0  0  0  0  0  0  0  0  0  0  0  0
   -9.5674  -26.8236   29.7782 N   0  0  0  0  0  0  0  0  0  0  0  0
  -10.7613  -26.8644   30.3366 C   0  0  0  0  0  0  0  0  0  0  0  0
  -11.8344  -26.3201   29.6538 C   0  0  0  0  0  0  0  0  0  0  0  0
  -11.6945  -24.9083   30.0912 C   0  0  0  0  0  0  0  0  0  0  0  0
  -10.6249  -24.4442   29.8565 O   0  0  0  0  0  0  0  0  0  0  0  0
  -12.7852  -24.3818   30.7803 N   0  0  0  0  0  0  0  0  0  0  0  0
  -12.9637  -23.1329   31.4303 C   0  0  0  0  0  0  0  0  0  0  0  0
  -12.1060  -22.1260   30.6430 C   0  0  0  0  0  0  0  0  0  0  0  0
  -12.6285  -22.0248   29.3020 N   0  0  0  0  0  0  0  0  0  0  0  0
  -12.1019  -22.6063   28.1665 C   0  0  0  0  0  0  0  0  0  0  0  0
  -13.0405  -23.0149   27.3018 N   0  0  0  0  0  0  0  0  0  0  0  0
  -12.7377  -23.6201   26.1509 C   0  0  0  0  0  0  0  0  0  0  0  0
  -11.4966  -24.0580   25.9287 C   0  0  0  0  0  0  0  0  0  0  0  0
  -10.6431  -23.7216   26.9436 C   0  0  0  0  0  0  0  0  0  0  0  0
  -10.8584  -22.8943   27.9777 N   0  0  0  0  0  0  0  0  0  0  0  0
  -12.7239  -23.2430   32.9236 C   0  0  0  0  0  0  0  0  0  0  0  0
  -11.4195  -23.8534   33.4226 C   0  0  0  0  0  0  0  0  0  0  0  0
  -11.3123  -25.3404   33.5128 C   0  0  0  0  0  0  0  0  0  0  0  0
  -10.2074  -23.4624   32.6463 C   0  0  0  0  0  0  0  0  0  0  0  0
  -13.7129  -25.8133   27.5430 H   0  0  0  0  0  0  0  0  0  0  0  0
  -12.7425  -26.6025   26.3148 H   0  0  0  0  0  0  0  0  0  0  0  0
  -13.4728  -27.5958   27.5438 H   0  0  0  0  0  0  0  0  0  0  0  0
  -10.4619  -26.5354   26.5835 H   0  0  0  0  0  0  0  0  0  0  0  0
   -8.4923  -26.4568   28.1050 H   0  0  0  0  0  0  0  0  0  0  0  0
  -10.6998  -26.9857   31.4092 H   0  0  0  0  0  0  0  0  0  0  0  0
  -13.5459  -25.0166   30.7123 H   0  0  0  0  0  0  0  0  0  0  0  0
  -14.0195  -22.8553   31.3168 H   0  0  0  0  0  0  0  0  0  0  0  0
  -11.1002  -22.4204   30.5414 H   0  0  0  0  0  0  0  0  0  0  0  0
  -12.0853  -21.1842   31.1726 H   0  0  0  0  0  0  0  0  0  0  0  0
  -13.4253  -22.6843   29.3033 H   0  0  0  0  0  0  0  0  0  0  0  0
  -13.5527  -23.7635   25.4532 H   0  0  0  0  0  0  0  0  0  0  0  0
  -11.1890  -24.6063   25.0589 H   0  0  0  0  0  0  0  0  0  0  0  0
   -9.6368  -24.0696   26.9118 H   0  0  0  0  0  0  0  0  0  0  0  0
  -13.5518  -23.8107   33.3711 H   0  0  0  0  0  0  0  0  0  0  0  0
  -12.8081  -22.2280   33.3368 H   0  0  0  0  0  0  0  0  0  0  0  0
  -11.4113  -23.4866   34.4427 H   0  0  0  0  0  0  0  0  0  0  0  0
  -11.5075  -25.6520   34.5309 H   0  0  0  0  0  0  0  0  0  0  0  0
  -10.3097  -25.7306   33.3082 H   0  0  0  0  0  0  0  0  0  0  0  0
  -11.9996  -25.7821   32.8094 H   0  0  0  0  0  0  0  0  0  0  0  0
  -10.0766  -24.0793   31.7779 H   0  0  0  0  0  0  0  0  0  0  0  0
  -10.3072  -22.4155   32.3959 H   0  0  0  0  0  0  0  0  0  0  0  0
   -9.2528  -23.6389   33.1388 H   0  0  0  0  0  0  0  0  0  0  0  0
  1  2  1  0
  2  3  2  0
  3  4  1  0
  4  5  2  0
  5  6  1  0
  6  7  2  0
  7  8  1  0
  8  9  2  0
  8 10  1  0
 10 11  1  0
 11 12  1  0
 12 13  1  0
 13 14  1  0
 14 15  2  0
 15 16  1  0
 16 17  2  0
 17 18  1  0
 18 19  2  0
 11 20  1  0
 20 21  1  0
 21 22  1  0
 21 23  1  0
  7  2  1  0
 19 14  1  0
  1 24  1  0
  1 25  1  0
  1 26  1  0
  3 27  1  0
  4 28  1  0
  6 29  1  0
 10 30  1  0
 11 31  1  0
 12 32  1  0
 12 33  1  0
 13 34  1  0
 16 35  1  0
 17 36  1  0
 18 37  1  0
 20 38  1  0
 20 39  1  0
 21 40  1  0
 22 41  1  0
 22 42  1  0
 22 43  1  0
 23 44  1  0
 23 45  1  0
 23 46  1  0
M  END
>  <Energy>  (75) 
109.93808695692437

>  <compound_id>  (75) 
34633

>  <target_id>  (75) 
1

>  <reference_id>  (75) 
82

>  <inspiration_ids>  (75) 
[82, 54]

>  <energy_score>  (75) 
87.40307741211598

>  <distance_score>  (75) 
2.90222148106495

>  <path>  (75) 
/opt/xchem-fragalysis-2/maxwin/BulkDock/SCRATCH/511015/C34633-P82/C34633-P82.minimised.mol

>  <scratch_subdir>  (75) 
/opt/xchem-fragalysis-2/maxwin/BulkDock/SCRATCH/511015/C34633-P82

>  <fragmenstein_runtime>  (75) 
14.708268404006958

>  <fragmenstein_outcome>  (75) 
too moved

>  <fragmenstein_mode>  (75) 
expansion

>  <fragmenstein_error>  (75) 


$$$$
C34633-P54
     RDKit          3D

 46 47  0  0  0  0  0  0  0  0999 V2000
  -12.8208  -25.2549   28.8581 C   0  0  0  0  0  0  0  0  0  0  0  0
  -12.4558  -26.1354   29.9969 C   0  0  0  0  0  0  0  0  0  0  0  0
  -13.1759  -27.3340   30.1247 C   0  0  0  0  0  0  0  0  0  0  0  0
  -12.9735  -28.1288   31.2372 C   0  0  0  0  0  0  0  0  0  0  0  0
  -12.1388  -27.8096   32.2342 N   0  0  0  0  0  0  0  0  0  0  0  0
  -11.4174  -26.6924   32.0534 C   0  0  0  0  0  0  0  0  0  0  0  0
  -11.4808  -25.8490   30.9476 C   0  0  0  0  0  0  0  0  0  0  0  0
  -10.6170  -24.6397   31.0930 C   0  0  0  0  0  0  0  0  0  0  0  0
   -9.4740  -24.7021   30.9199 O   0  0  0  0  0  0  0  0  0  0  0  0
  -11.4807  -23.4823   31.5727 N   0  0  0  0  0  0  0  0  0  0  0  0
  -11.1136  -22.1686   32.0377 C   0  0  0  0  0  0  0  0  0  0  0  0
  -10.9087  -21.2544   30.8604 C   0  0  0  0  0  0  0  0  0  0  0  0
   -9.9889  -21.8750   29.9549 N   0  0  0  0  0  0  0  0  0  0  0  0
  -10.4157  -22.4590   28.7998 C   0  0  0  0  0  0  0  0  0  0  0  0
   -9.6879  -23.5183   28.4624 N   0  0  0  0  0  0  0  0  0  0  0  0
  -10.0935  -24.2459   27.4307 C   0  0  0  0  0  0  0  0  0  0  0  0
  -11.1305  -23.8778   26.6355 C   0  0  0  0  0  0  0  0  0  0  0  0
  -11.7779  -22.7361   27.0069 C   0  0  0  0  0  0  0  0  0  0  0  0
  -11.4801  -22.0439   28.1196 N   0  0  0  0  0  0  0  0  0  0  0  0
  -10.3377  -22.0452   33.3696 C   0  0  0  0  0  0  0  0  0  0  0  0
   -9.0257  -22.7481   33.7028 C   0  0  0  0  0  0  0  0  0  0  0  0
   -8.9655  -24.2517   33.6942 C   0  0  0  0  0  0  0  0  0  0  0  0
   -7.9436  -22.2087   32.8408 C   0  0  0  0  0  0  0  0  0  0  0  0
  -13.9097  -25.2322   28.7272 H   0  0  0  0  0  0  0  0  0  0  0  0
  -12.5329  -24.2299   29.0634 H   0  0  0  0  0  0  0  0  0  0  0  0
  -12.3880  -25.6552   27.9425 H   0  0  0  0  0  0  0  0  0  0  0  0
  -13.9108  -27.6335   29.3823 H   0  0  0  0  0  0  0  0  0  0  0  0
  -13.5166  -29.0620   31.3664 H   0  0  0  0  0  0  0  0  0  0  0  0
  -10.7357  -26.4976   32.8748 H   0  0  0  0  0  0  0  0  0  0  0  0
  -12.4405  -23.7451   31.5319 H   0  0  0  0  0  0  0  0  0  0  0  0
  -12.0591  -21.7437   32.3789 H   0  0  0  0  0  0  0  0  0  0  0  0
  -10.6016  -20.2664   31.2038 H   0  0  0  0  0  0  0  0  0  0  0  0
  -11.8739  -21.0725   30.3658 H   0  0  0  0  0  0  0  0  0  0  0  0
   -9.3919  -22.5910   30.3698 H   0  0  0  0  0  0  0  0  0  0  0  0
   -9.5498  -25.1713   27.2729 H   0  0  0  0  0  0  0  0  0  0  0  0
  -11.4526  -24.5028   25.8329 H   0  0  0  0  0  0  0  0  0  0  0  0
  -12.6079  -22.3611   26.4197 H   0  0  0  0  0  0  0  0  0  0  0  0
  -11.0256  -22.3210   34.1723 H   0  0  0  0  0  0  0  0  0  0  0  0
  -10.1850  -20.9678   33.5333 H   0  0  0  0  0  0  0  0  0  0  0  0
   -8.7898  -22.4380   34.7296 H   0  0  0  0  0  0  0  0  0  0  0  0
   -8.1927  -24.6623   33.0400 H   0  0  0  0  0  0  0  0  0  0  0  0
   -9.9147  -24.6807   33.4424 H   0  0  0  0  0  0  0  0  0  0  0  0
   -8.7293  -24.6174   34.6938 H   0  0  0  0  0  0  0  0  0  0  0  0
   -8.0501  -22.5408   31.8104 H   0  0  0  0  0  0  0  0  0  0  0  0
   -7.9915  -21.1221   32.8861 H   0  0  0  0  0  0  0  0  0  0  0  0
   -6.9718  -22.5406   33.1994 H   0  0  0  0  0  0  0  0  0  0  0  0
  1  2  1  0
  2  3  2  0
  3  4  1  0
  4  5  2  0
  5  6  1  0
  6  7  2  0
  7  8  1  0
  8  9  2  0
  8 10  1  0
 10 11  1  0
 11 12  1  0
 12 13  1  0
 13 14  1  0
 14 15  2  0
 15 16  1  0
 16 17  2  0
 17 18  1  0
 18 19  2  0
 11 20  1  0
 20 21  1  0
 21 22  1  0
 21 23  1  0
  7  2  1  0
 19 14  1  0
  1 24  1  0
  1 25  1  0
  1 26  1  0
  3 27  1  0
  4 28  1  0
  6 29  1  0
 10 30  1  0
 11 31  1  0
 12 32  1  0
 12 33  1  0
 13 34  1  0
 16 35  1  0
 17 36  1  0
 18 37  1  0
 20 38  1  0
 20 39  1  0
 21 40  1  0
 22 41  1  0
 22 42  1  0
 22 43  1  0
 23 44  1  0
 23 45  1  0
 23 46  1  0
M  END
>  <Energy>  (76) 
19.656872197658053

>  <compound_id>  (76) 
34633

>  <target_id>  (76) 
1

>  <reference_id>  (76) 
54

>  <inspiration_ids>  (76) 
[82, 54]

>  <energy_score>  (76) 
5.110878396036071

>  <distance_score>  (76) 
2.198728715795261

>  <path>  (76) 
/opt/xchem-fragalysis-2/maxwin/BulkDock/SCRATCH/511015/C34633-P54/C34633-P54.minimised.mol

>  <scratch_subdir>  (76) 
/opt/xchem-fragalysis-2/maxwin/BulkDock/SCRATCH/511015/C34633-P54

>  <fragmenstein_runtime>  (76) 
8.789859294891357

>  <fragmenstein_outcome>  (76) 
too moved

>  <fragmenstein_mode>  (76) 
expansion

>  <fragmenstein_error>  (76) 


$$$$
C34634-P82
     RDKit          3D

 51 52  0  0  0  0  0  0  0  0999 V2000
   -9.4701  -25.0182   30.3665 C   0  0  0  0  0  0  0  0  0  0  0  0
   -9.4374  -24.5879   31.8111 C   0  0  0  0  0  0  0  0  0  0  0  0
   -8.3465  -25.3847   32.4812 C   0  0  0  0  0  0  0  0  0  0  0  0
   -9.8076  -23.1461   32.3870 C   0  0  0  0  0  0  0  0  0  0  0  0
  -10.8697  -21.7962   31.7672 C   0  0  0  0  0  0  0  0  0  0  0  0
  -11.1418  -21.4797   30.1679 C   0  0  0  0  0  0  0  0  0  0  0  0
  -11.5511  -22.6224   29.3671 N   0  0  0  0  0  0  0  0  0  0  0  0
  -11.2928  -22.9341   28.0573 C   0  0  0  0  0  0  0  0  0  0  0  0
  -12.3171  -22.7261   27.2417 N   0  0  0  0  0  0  0  0  0  0  0  0
  -12.5285  -23.6017   26.2331 C   0  0  0  0  0  0  0  0  0  0  0  0
  -11.8419  -24.7694   26.0963 C   0  0  0  0  0  0  0  0  0  0  0  0
  -10.8147  -24.9041   26.9752 C   0  0  0  0  0  0  0  0  0  0  0  0
  -10.4638  -23.9582   27.8586 N   0  0  0  0  0  0  0  0  0  0  0  0
  -11.8766  -22.6576   31.8558 N   0  0  0  0  0  0  0  0  0  0  0  0
  -13.1034  -22.5755   32.5012 C   0  0  0  0  0  0  0  0  0  0  0  0
  -13.6214  -21.6801   33.0863 O   0  0  0  0  0  0  0  0  0  0  0  0
  -13.5362  -23.9737   32.3261 C   0  0  0  0  0  0  0  0  0  0  0  0
  -13.7405  -23.9394   30.9786 C   0  0  0  0  0  0  0  0  0  0  0  0
  -13.0135  -24.7549   30.0344 C   0  0  0  0  0  0  0  0  0  0  0  0
  -12.1849  -25.6976   30.4812 C   0  0  0  0  0  0  0  0  0  0  0  0
  -11.9754  -25.7651   31.7804 N   0  0  0  0  0  0  0  0  0  0  0  0
  -12.5751  -24.9414   32.6875 C   0  0  0  0  0  0  0  0  0  0  0  0
  -11.8371  -24.8647   33.8213 N   0  0  0  0  0  0  0  0  0  0  0  0
  -12.1121  -23.7558   34.6257 C   0  0  0  0  0  0  0  0  0  0  0  0
  -10.9226  -25.8644   34.2335 C   0  0  0  0  0  0  0  0  0  0  0  0
  -10.2827  -24.5136   29.9052 H   0  0  0  0  0  0  0  0  0  0  0  0
   -9.6494  -26.0963   30.2800 H   0  0  0  0  0  0  0  0  0  0  0  0
   -8.5768  -24.8567   29.7717 H   0  0  0  0  0  0  0  0  0  0  0  0
  -10.2137  -25.1598   32.1996 H   0  0  0  0  0  0  0  0  0  0  0  0
   -8.3129  -26.3603   32.0139 H   0  0  0  0  0  0  0  0  0  0  0  0
   -7.3534  -24.9895   32.3807 H   0  0  0  0  0  0  0  0  0  0  0  0
   -8.5115  -25.5559   33.5329 H   0  0  0  0  0  0  0  0  0  0  0  0
  -10.2757  -23.4094   33.2993 H   0  0  0  0  0  0  0  0  0  0  0  0
   -8.8962  -22.7302   32.7466 H   0  0  0  0  0  0  0  0  0  0  0  0
  -10.9433  -20.9409   32.4385 H   0  0  0  0  0  0  0  0  0  0  0  0
  -12.0311  -20.8925   30.1213 H   0  0  0  0  0  0  0  0  0  0  0  0
  -10.4046  -20.9009   29.6666 H   0  0  0  0  0  0  0  0  0  0  0  0
  -12.5661  -22.5549   29.3000 H   0  0  0  0  0  0  0  0  0  0  0  0
  -13.3415  -23.3546   25.5575 H   0  0  0  0  0  0  0  0  0  0  0  0
  -12.0892  -25.5216   25.3682 H   0  0  0  0  0  0  0  0  0  0  0  0
  -10.2290  -25.8136   27.0319 H   0  0  0  0  0  0  0  0  0  0  0  0
  -11.8045  -23.5505   31.3965 H   0  0  0  0  0  0  0  0  0  0  0  0
  -14.3465  -23.0706   30.7248 H   0  0  0  0  0  0  0  0  0  0  0  0
  -13.1066  -24.7061   28.9620 H   0  0  0  0  0  0  0  0  0  0  0  0
  -11.6851  -26.4071   29.8397 H   0  0  0  0  0  0  0  0  0  0  0  0
  -11.8094  -22.7735   34.2751 H   0  0  0  0  0  0  0  0  0  0  0  0
  -13.2040  -23.7936   34.6980 H   0  0  0  0  0  0  0  0  0  0  0  0
  -11.5978  -23.7901   35.5750 H   0  0  0  0  0  0  0  0  0  0  0  0
  -10.0080  -25.4546   34.6031 H   0  0  0  0  0  0  0  0  0  0  0  0
  -11.3324  -26.3760   35.0768 H   0  0  0  0  0  0  0  0  0  0  0  0
  -10.6770  -26.6197   33.4895 H   0  0  0  0  0  0  0  0  0  0  0  0
  1  2  1  0
  2  3  1  0
  2  4  1  0
  4  5  1  0
  5  6  1  0
  6  7  1  0
  7  8  1  0
  8  9  2  0
  9 10  1  0
 10 11  2  0
 11 12  1  0
 12 13  2  0
  5 14  1  0
 14 15  1  0
 15 16  2  0
 15 17  1  0
 17 18  2  0
 18 19  1  0
 19 20  2  0
 20 21  1  0
 21 22  2  0
 22 23  1  0
 23 24  1  0
 23 25  1  0
 13  8  1  0
 22 17  1  0
  1 26  1  0
  1 27  1  0
  1 28  1  0
  2 29  1  0
  3 30  1  0
  3 31  1  0
  3 32  1  0
  4 33  1  0
  4 34  1  0
  5 35  1  0
  6 36  1  0
  6 37  1  0
  7 38  1  0
 10 39  1  0
 11 40  1  0
 12 41  1  0
 14 42  1  0
 18 43  1  0
 19 44  1  0
 20 45  1  0
 24 46  1  0
 24 47  1  0
 24 48  1  0
 25 49  1  0
 25 50  1  0
 25 51  1  0
M  END
>  <Energy>  (77) 
248.5829282749103

>  <compound_id>  (77) 
34634

>  <target_id>  (77) 
1

>  <reference_id>  (77) 
82

>  <inspiration_ids>  (77) 
[82, 54]

>  <energy_score>  (77) 
246.03434807314844

>  <distance_score>  (77) 
1.8679023725524455

>  <path>  (77) 
/opt/xchem-fragalysis-2/maxwin/BulkDock/SCRATCH/511015/C34634-P82/C34634-P82.minimised.mol

>  <scratch_subdir>  (77) 
/opt/xchem-fragalysis-2/maxwin/BulkDock/SCRATCH/511015/C34634-P82

>  <fragmenstein_runtime>  (77) 
8.461801290512085

>  <fragmenstein_outcome>  (77) 
too moved

>  <fragmenstein_mode>  (77) 
expansion

>  <fragmenstein_error>  (77) 


$$$$
C34634-P54
     RDKit          3D

 51 52  0  0  0  0  0  0  0  0999 V2000
   -8.1660  -24.2077   33.2147 C   0  0  0  0  0  0  0  0  0  0  0  0
   -9.4041  -23.4238   33.5051 C   0  0  0  0  0  0  0  0  0  0  0  0
   -9.3024  -22.6705   34.8060 C   0  0  0  0  0  0  0  0  0  0  0  0
   -9.8206  -22.4141   32.4758 C   0  0  0  0  0  0  0  0  0  0  0  0
   -9.6373  -22.7352   30.9911 C   0  0  0  0  0  0  0  0  0  0  0  0
  -10.5565  -21.7099   30.2704 C   0  0  0  0  0  0  0  0  0  0  0  0
  -11.9106  -22.1744   30.0876 N   0  0  0  0  0  0  0  0  0  0  0  0
  -12.1316  -22.8517   28.9078 C   0  0  0  0  0  0  0  0  0  0  0  0
  -11.4406  -22.5437   27.8056 N   0  0  0  0  0  0  0  0  0  0  0  0
  -11.8062  -23.1564   26.6712 C   0  0  0  0  0  0  0  0  0  0  0  0
  -12.7862  -24.1156   26.6128 C   0  0  0  0  0  0  0  0  0  0  0  0
  -13.3985  -24.4072   27.7976 C   0  0  0  0  0  0  0  0  0  0  0  0
  -13.0956  -23.7791   28.9380 N   0  0  0  0  0  0  0  0  0  0  0  0
   -9.9162  -24.0988   30.5878 N   0  0  0  0  0  0  0  0  0  0  0  0
  -11.1320  -24.9598   30.8197 C   0  0  0  0  0  0  0  0  0  0  0  0
  -12.0798  -24.7576   31.4319 O   0  0  0  0  0  0  0  0  0  0  0  0
  -11.2524  -26.2149   30.1182 C   0  0  0  0  0  0  0  0  0  0  0  0
  -10.9063  -26.2209   28.7730 C   0  0  0  0  0  0  0  0  0  0  0  0
  -11.0490  -27.3917   28.0681 C   0  0  0  0  0  0  0  0  0  0  0  0
  -11.5183  -28.4952   28.7503 C   0  0  0  0  0  0  0  0  0  0  0  0
  -11.9378  -28.4872   30.0306 N   0  0  0  0  0  0  0  0  0  0  0  0
  -11.8943  -27.3275   30.7039 C   0  0  0  0  0  0  0  0  0  0  0  0
  -12.6779  -27.2513   31.8797 N   0  0  0  0  0  0  0  0  0  0  0  0
  -12.3243  -28.2669   32.8622 C   0  0  0  0  0  0  0  0  0  0  0  0
  -14.0945  -27.3418   31.4880 C   0  0  0  0  0  0  0  0  0  0  0  0
   -7.9840  -24.9340   34.0082 H   0  0  0  0  0  0  0  0  0  0  0  0
   -7.3066  -23.5419   33.1421 H   0  0  0  0  0  0  0  0  0  0  0  0
   -8.2795  -24.7993   32.3112 H   0  0  0  0  0  0  0  0  0  0  0  0
  -10.1783  -24.1654   33.5994 H   0  0  0  0  0  0  0  0  0  0  0  0
   -9.3393  -23.3842   35.6111 H   0  0  0  0  0  0  0  0  0  0  0  0
   -8.3659  -22.1118   34.8556 H   0  0  0  0  0  0  0  0  0  0  0  0
  -10.1365  -21.9771   34.9523 H   0  0  0  0  0  0  0  0  0  0  0  0
  -10.8782  -22.1882   32.6749 H   0  0  0  0  0  0  0  0  0  0  0  0
   -9.2912  -21.4673   32.6598 H   0  0  0  0  0  0  0  0  0  0  0  0
   -8.5876  -22.5777   30.7391 H   0  0  0  0  0  0  0  0  0  0  0  0
  -10.6331  -20.7765   30.8377 H   0  0  0  0  0  0  0  0  0  0  0  0
  -10.1079  -21.4232   29.3145 H   0  0  0  0  0  0  0  0  0  0  0  0
  -12.2923  -22.7498   30.8458 H   0  0  0  0  0  0  0  0  0  0  0  0
  -11.2777  -22.8331   25.7803 H   0  0  0  0  0  0  0  0  0  0  0  0
  -13.0905  -24.6012   25.7010 H   0  0  0  0  0  0  0  0  0  0  0  0
  -14.1912  -25.1452   27.8679 H   0  0  0  0  0  0  0  0  0  0  0  0
   -9.3020  -24.5544   29.9275 H   0  0  0  0  0  0  0  0  0  0  0  0
  -10.5164  -25.3387   28.2776 H   0  0  0  0  0  0  0  0  0  0  0  0
  -10.7656  -27.4624   27.0244 H   0  0  0  0  0  0  0  0  0  0  0  0
  -11.6031  -29.4586   28.2538 H   0  0  0  0  0  0  0  0  0  0  0  0
  -11.2911  -28.1320   33.1938 H   0  0  0  0  0  0  0  0  0  0  0  0
  -12.9529  -28.1506   33.7524 H   0  0  0  0  0  0  0  0  0  0  0  0
  -12.4838  -29.2829   32.4885 H   0  0  0  0  0  0  0  0  0  0  0  0
  -14.3426  -26.6361   30.6863 H   0  0  0  0  0  0  0  0  0  0  0  0
  -14.3686  -28.3512   31.1568 H   0  0  0  0  0  0  0  0  0  0  0  0
  -14.7263  -27.0901   32.3471 H   0  0  0  0  0  0  0  0  0  0  0  0
  1  2  1  0
  2  3  1  0
  2  4  1  0
  4  5  1  0
  5  6  1  0
  6  7  1  0
  7  8  1  0
  8  9  2  0
  9 10  1  0
 10 11  2  0
 11 12  1  0
 12 13  2  0
  5 14  1  0
 14 15  1  0
 15 16  2  0
 15 17  1  0
 17 18  2  0
 18 19  1  0
 19 20  2  0
 20 21  1  0
 21 22  2  0
 22 23  1  0
 23 24  1  0
 23 25  1  0
 13  8  1  0
 22 17  1  0
  1 26  1  0
  1 27  1  0
  1 28  1  0
  2 29  1  0
  3 30  1  0
  3 31  1  0
  3 32  1  0
  4 33  1  0
  4 34  1  0
  5 35  1  0
  6 36  1  0
  6 37  1  0
  7 38  1  0
 10 39  1  0
 11 40  1  0
 12 41  1  0
 14 42  1  0
 18 43  1  0
 19 44  1  0
 20 45  1  0
 24 46  1  0
 24 47  1  0
 24 48  1  0
 25 49  1  0
 25 50  1  0
 25 51  1  0
M  END
>  <Energy>  (78) 
-3.1578481218834269

>  <compound_id>  (78) 
34634

>  <target_id>  (78) 
1

>  <reference_id>  (78) 
54

>  <inspiration_ids>  (78) 
[82, 54]

>  <energy_score>  (78) 
-14.95496652701496

>  <distance_score>  (78) 
2.904900670286823

>  <path>  (78) 
/opt/xchem-fragalysis-2/maxwin/BulkDock/SCRATCH/511015/C34634-P54/C34634-P54.minimised.mol

>  <scratch_subdir>  (78) 
/opt/xchem-fragalysis-2/maxwin/BulkDock/SCRATCH/511015/C34634-P54

>  <fragmenstein_runtime>  (78) 
6.420142650604248

>  <fragmenstein_outcome>  (78) 
too moved

>  <fragmenstein_mode>  (78) 
expansion

>  <fragmenstein_error>  (78) 


$$$$
C34635-P82
     RDKit          3D

 46 47  0  0  0  0  0  0  0  0999 V2000
   -9.1342  -25.1019   29.0378 C   0  0  0  0  0  0  0  0  0  0  0  0
   -9.7159  -26.4584   28.9181 C   0  0  0  0  0  0  0  0  0  0  0  0
  -10.8647  -26.5193   28.1667 C   0  0  0  0  0  0  0  0  0  0  0  0
  -11.9875  -26.2475   28.8774 C   0  0  0  0  0  0  0  0  0  0  0  0
  -11.8206  -26.1634   30.2543 C   0  0  0  0  0  0  0  0  0  0  0  0
  -12.3236  -25.0745   31.0663 C   0  0  0  0  0  0  0  0  0  0  0  0
  -12.2993  -25.2591   32.2354 O   0  0  0  0  0  0  0  0  0  0  0  0
  -12.6653  -23.9483   30.3292 N   0  0  0  0  0  0  0  0  0  0  0  0
  -13.0010  -22.6315   30.7359 C   0  0  0  0  0  0  0  0  0  0  0  0
  -12.0661  -21.7542   29.8290 C   0  0  0  0  0  0  0  0  0  0  0  0
  -11.2537  -22.4669   28.8246 N   0  0  0  0  0  0  0  0  0  0  0  0
  -11.7070  -23.0009   27.6350 C   0  0  0  0  0  0  0  0  0  0  0  0
  -12.9774  -23.0796   27.3307 N   0  0  0  0  0  0  0  0  0  0  0  0
  -13.3467  -23.8773   26.2990 C   0  0  0  0  0  0  0  0  0  0  0  0
  -12.5372  -24.6843   25.6116 C   0  0  0  0  0  0  0  0  0  0  0  0
  -11.2551  -24.3752   25.8325 C   0  0  0  0  0  0  0  0  0  0  0  0
  -10.8317  -23.6579   26.8883 N   0  0  0  0  0  0  0  0  0  0  0  0
  -13.1413  -22.4086   32.2482 C   0  0  0  0  0  0  0  0  0  0  0  0
  -11.9648  -22.6558   33.1782 C   0  0  0  0  0  0  0  0  0  0  0  0
  -10.6851  -22.8689   32.4480 C   0  0  0  0  0  0  0  0  0  0  0  0
  -12.1440  -23.7819   34.1632 C   0  0  0  0  0  0  0  0  0  0  0  0
  -10.7107  -26.7229   30.8658 C   0  0  0  0  0  0  0  0  0  0  0  0
   -9.6820  -27.0284   30.1250 N   0  0  0  0  0  0  0  0  0  0  0  0
   -9.4859  -24.6785   29.9811 H   0  0  0  0  0  0  0  0  0  0  0  0
   -8.0596  -25.0484   29.0632 H   0  0  0  0  0  0  0  0  0  0  0  0
   -9.4662  -24.4836   28.2320 H   0  0  0  0  0  0  0  0  0  0  0  0
  -10.8247  -26.4522   27.0941 H   0  0  0  0  0  0  0  0  0  0  0  0
  -12.8715  -25.8967   28.3662 H   0  0  0  0  0  0  0  0  0  0  0  0
  -12.6504  -24.1802   29.3524 H   0  0  0  0  0  0  0  0  0  0  0  0
  -14.0138  -22.4023   30.4394 H   0  0  0  0  0  0  0  0  0  0  0  0
  -11.3731  -21.2077   30.4635 H   0  0  0  0  0  0  0  0  0  0  0  0
  -12.6079  -21.0091   29.2648 H   0  0  0  0  0  0  0  0  0  0  0  0
  -10.7499  -23.2170   29.2668 H   0  0  0  0  0  0  0  0  0  0  0  0
  -14.3771  -23.8780   25.9799 H   0  0  0  0  0  0  0  0  0  0  0  0
  -12.9229  -25.3966   24.9158 H   0  0  0  0  0  0  0  0  0  0  0  0
  -10.5081  -24.7062   25.1401 H   0  0  0  0  0  0  0  0  0  0  0  0
  -14.0008  -23.0031   32.5887 H   0  0  0  0  0  0  0  0  0  0  0  0
  -13.4695  -21.3768   32.4020 H   0  0  0  0  0  0  0  0  0  0  0  0
  -11.8902  -21.7409   33.7807 H   0  0  0  0  0  0  0  0  0  0  0  0
  -10.3760  -21.8541   32.1940 H   0  0  0  0  0  0  0  0  0  0  0  0
   -9.9016  -23.3938   32.9943 H   0  0  0  0  0  0  0  0  0  0  0  0
  -10.7553  -23.4668   31.5564 H   0  0  0  0  0  0  0  0  0  0  0  0
  -13.1873  -24.1015   34.2309 H   0  0  0  0  0  0  0  0  0  0  0  0
  -11.4929  -24.6490   34.0153 H   0  0  0  0  0  0  0  0  0  0  0  0
  -11.7899  -23.4447   35.1282 H   0  0  0  0  0  0  0  0  0  0  0  0
  -10.5442  -26.7573   31.9365 H   0  0  0  0  0  0  0  0  0  0  0  0
  1  2  1  0
  2  3  2  0
  3  4  1  0
  4  5  2  0
  5  6  1  0
  6  7  2  0
  6  8  1  0
  8  9  1  0
  9 10  1  0
 10 11  1  0
 11 12  1  0
 12 13  2  0
 13 14  1  0
 14 15  2  0
 15 16  1  0
 16 17  2  0
  9 18  1  0
 18 19  1  0
 19 20  1  0
 19 21  1  0
  5 22  1  0
 22 23  2  0
 23  2  1  0
 17 12  1  0
  1 24  1  0
  1 25  1  0
  1 26  1  0
  3 27  1  0
  4 28  1  0
  8 29  1  0
  9 30  1  0
 10 31  1  0
 10 32  1  0
 11 33  1  0
 14 34  1  0
 15 35  1  0
 16 36  1  0
 18 37  1  0
 18 38  1  0
 19 39  1  0
 20 40  1  0
 20 41  1  0
 20 42  1  0
 21 43  1  0
 21 44  1  0
 21 45  1  0
 22 46  1  0
M  END
>  <Energy>  (79) 
110.26904459276471

>  <compound_id>  (79) 
34635

>  <target_id>  (79) 
1

>  <reference_id>  (79) 
82

>  <inspiration_ids>  (79) 
[82, 54]

>  <energy_score>  (79) 
129.35578819034347

>  <distance_score>  (79) 
3.1082243797169284

>  <path>  (79) 
/opt/xchem-fragalysis-2/maxwin/BulkDock/SCRATCH/511015/C34635-P82/C34635-P82.minimised.mol

>  <scratch_subdir>  (79) 
/opt/xchem-fragalysis-2/maxwin/BulkDock/SCRATCH/511015/C34635-P82

>  <fragmenstein_runtime>  (79) 
10.331635475158691

>  <fragmenstein_outcome>  (79) 
too moved

>  <fragmenstein_mode>  (79) 
expansion

>  <fragmenstein_error>  (79) 


$$$$
C34635-P54
     RDKit          3D

 46 47  0  0  0  0  0  0  0  0999 V2000
  -13.7634  -28.1938   27.6392 C   0  0  0  0  0  0  0  0  0  0  0  0
  -13.0226  -27.5394   28.7686 C   0  0  0  0  0  0  0  0  0  0  0  0
  -13.4831  -27.6830   30.0739 C   0  0  0  0  0  0  0  0  0  0  0  0
  -12.7728  -27.0923   31.0988 C   0  0  0  0  0  0  0  0  0  0  0  0
  -11.6505  -26.3614   30.7598 C   0  0  0  0  0  0  0  0  0  0  0  0
  -10.9984  -25.5774   31.7753 C   0  0  0  0  0  0  0  0  0  0  0  0
  -10.6006  -26.1173   32.7268 O   0  0  0  0  0  0  0  0  0  0  0  0
  -11.0450  -24.0819   31.4241 N   0  0  0  0  0  0  0  0  0  0  0  0
  -10.6956  -22.9117   32.2177 C   0  0  0  0  0  0  0  0  0  0  0  0
  -10.2362  -21.7602   31.3704 C   0  0  0  0  0  0  0  0  0  0  0  0
  -11.1115  -21.4728   30.2639 N   0  0  0  0  0  0  0  0  0  0  0  0
  -10.9817  -22.1688   29.0957 C   0  0  0  0  0  0  0  0  0  0  0  0
  -11.9481  -21.9994   28.2060 N   0  0  0  0  0  0  0  0  0  0  0  0
  -11.8834  -22.7260   27.0734 C   0  0  0  0  0  0  0  0  0  0  0  0
  -10.9196  -23.6572   26.8274 C   0  0  0  0  0  0  0  0  0  0  0  0
   -9.9831  -23.7722   27.8094 C   0  0  0  0  0  0  0  0  0  0  0  0
   -9.9967  -23.0591   28.9426 N   0  0  0  0  0  0  0  0  0  0  0  0
   -9.9817  -23.0275   33.5554 C   0  0  0  0  0  0  0  0  0  0  0  0
   -8.5294  -23.3462   33.6592 C   0  0  0  0  0  0  0  0  0  0  0  0
   -8.1898  -24.7508   33.2477 C   0  0  0  0  0  0  0  0  0  0  0  0
   -7.7028  -22.3742   32.9133 C   0  0  0  0  0  0  0  0  0  0  0  0
  -11.2708  -26.2469   29.4609 C   0  0  0  0  0  0  0  0  0  0  0  0
  -11.9177  -26.8328   28.4508 N   0  0  0  0  0  0  0  0  0  0  0  0
  -13.7604  -29.2808   27.7656 H   0  0  0  0  0  0  0  0  0  0  0  0
  -14.7975  -27.8367   27.6075 H   0  0  0  0  0  0  0  0  0  0  0  0
  -13.2936  -27.9603   26.6781 H   0  0  0  0  0  0  0  0  0  0  0  0
  -14.3737  -28.2671   30.2859 H   0  0  0  0  0  0  0  0  0  0  0  0
  -13.0939  -27.1973   32.1301 H   0  0  0  0  0  0  0  0  0  0  0  0
  -11.3817  -23.9678   30.4768 H   0  0  0  0  0  0  0  0  0  0  0  0
  -11.6743  -22.5469   32.5050 H   0  0  0  0  0  0  0  0  0  0  0  0
   -9.2598  -21.9953   30.9766 H   0  0  0  0  0  0  0  0  0  0  0  0
  -10.1802  -20.8666   32.0008 H   0  0  0  0  0  0  0  0  0  0  0  0
  -12.0578  -21.1817   30.4580 H   0  0  0  0  0  0  0  0  0  0  0  0
  -12.6658  -22.5338   26.3451 H   0  0  0  0  0  0  0  0  0  0  0  0
  -10.8893  -24.2563   25.9347 H   0  0  0  0  0  0  0  0  0  0  0  0
   -9.1778  -24.4947   27.7410 H   0  0  0  0  0  0  0  0  0  0  0  0
  -10.4165  -23.8153   34.1274 H   0  0  0  0  0  0  0  0  0  0  0  0
  -10.1718  -22.1019   34.1182 H   0  0  0  0  0  0  0  0  0  0  0  0
   -8.2982  -23.2233   34.7105 H   0  0  0  0  0  0  0  0  0  0  0  0
   -8.4760  -24.9287   32.2130 H   0  0  0  0  0  0  0  0  0  0  0  0
   -7.1187  -24.9400   33.3321 H   0  0  0  0  0  0  0  0  0  0  0  0
   -8.6631  -25.4802   33.9048 H   0  0  0  0  0  0  0  0  0  0  0  0
   -6.6760  -22.4796   33.2206 H   0  0  0  0  0  0  0  0  0  0  0  0
   -7.7242  -22.6054   31.8531 H   0  0  0  0  0  0  0  0  0  0  0  0
   -8.0348  -21.3496   33.0900 H   0  0  0  0  0  0  0  0  0  0  0  0
  -10.4100  -25.6645   29.1958 H   0  0  0  0  0  0  0  0  0  0  0  0
  1  2  1  0
  2  3  2  0
  3  4  1  0
  4  5  2  0
  5  6  1  0
  6  7  2  0
  6  8  1  0
  8  9  1  0
  9 10  1  0
 10 11  1  0
 11 12  1  0
 12 13  2  0
 13 14  1  0
 14 15  2  0
 15 16  1  0
 16 17  2  0
  9 18  1  0
 18 19  1  0
 19 20  1  0
 19 21  1  0
  5 22  1  0
 22 23  2  0
 23  2  1  0
 17 12  1  0
  1 24  1  0
  1 25  1  0
  1 26  1  0
  3 27  1  0
  4 28  1  0
  8 29  1  0
  9 30  1  0
 10 31  1  0
 10 32  1  0
 11 33  1  0
 14 34  1  0
 15 35  1  0
 16 36  1  0
 18 37  1  0
 18 38  1  0
 19 39  1  0
 20 40  1  0
 20 41  1  0
 20 42  1  0
 21 43  1  0
 21 44  1  0
 21 45  1  0
 22 46  1  0
M  END
>  <Energy>  (80) 
-1.0177621116299846

>  <compound_id>  (80) 
34635

>  <target_id>  (80) 
1

>  <reference_id>  (80) 
54

>  <inspiration_ids>  (80) 
[82, 54]

>  <energy_score>  (80) 
7.583300198588034

>  <distance_score>  (80) 
2.6804995726605454

>  <path>  (80) 
/opt/xchem-fragalysis-2/maxwin/BulkDock/SCRATCH/511015/C34635-P54/C34635-P54.minimised.mol

>  <scratch_subdir>  (80) 
/opt/xchem-fragalysis-2/maxwin/BulkDock/SCRATCH/511015/C34635-P54

>  <fragmenstein_runtime>  (80) 
5.7862818241119385

>  <fragmenstein_outcome>  (80) 
too moved

>  <fragmenstein_mode>  (80) 
expansion

>  <fragmenstein_error>  (80) 


$$$$
C34636-P82
     RDKit          3D

 50 52  0  0  0  0  0  0  0  0999 V2000
  -16.4519  -23.0824   34.1949 C   0  0  0  0  0  0  0  0  0  0  0  0
  -15.5436  -24.2946   34.0421 C   0  0  0  0  0  0  0  0  0  0  0  0
  -14.1777  -23.9114   33.4414 C   0  0  0  0  0  0  0  0  0  0  0  0
  -13.0433  -24.9988   33.5726 C   0  0  0  0  0  0  0  0  0  0  0  0
  -11.6626  -24.5936   33.8410 C   0  0  0  0  0  0  0  0  0  0  0  0
  -10.8831  -25.0065   34.6347 O   0  0  0  0  0  0  0  0  0  0  0  0
  -11.5274  -23.6610   32.8210 N   0  0  0  0  0  0  0  0  0  0  0  0
  -10.4455  -23.0056   32.3483 C   0  0  0  0  0  0  0  0  0  0  0  0
  -11.0727  -21.6251   32.2700 C   0  0  0  0  0  0  0  0  0  0  0  0
  -12.2330  -21.6984   31.2958 C   0  0  0  0  0  0  0  0  0  0  0  0
  -11.6979  -21.7557   29.9070 C   0  0  0  0  0  0  0  0  0  0  0  0
  -11.1504  -23.0785   29.7323 N   0  0  0  0  0  0  0  0  0  0  0  0
  -11.1320  -23.5261   28.4270 C   0  0  0  0  0  0  0  0  0  0  0  0
  -11.9977  -22.9921   27.5490 N   0  0  0  0  0  0  0  0  0  0  0  0
  -12.2236  -23.6399   26.3941 C   0  0  0  0  0  0  0  0  0  0  0  0
  -11.6401  -24.8293   26.0864 C   0  0  0  0  0  0  0  0  0  0  0  0
  -10.7191  -25.2535   26.9958 C   0  0  0  0  0  0  0  0  0  0  0  0
  -10.3867  -24.5868   28.1115 N   0  0  0  0  0  0  0  0  0  0  0  0
  -10.4235  -23.7803   30.8618 C   0  0  0  0  0  0  0  0  0  0  0  0
  -12.3038  -25.6382   32.1258 C   0  0  0  0  0  0  0  0  0  0  0  0
  -12.7024  -25.2489   30.8414 C   0  0  0  0  0  0  0  0  0  0  0  0
  -12.1856  -25.9396   29.7391 C   0  0  0  0  0  0  0  0  0  0  0  0
  -11.1146  -26.8002   29.8833 C   0  0  0  0  0  0  0  0  0  0  0  0
  -10.5628  -26.9542   31.1323 C   0  0  0  0  0  0  0  0  0  0  0  0
  -11.1363  -26.4211   32.2518 N   0  0  0  0  0  0  0  0  0  0  0  0
  -16.6355  -22.6098   33.2244 H   0  0  0  0  0  0  0  0  0  0  0  0
  -16.0164  -22.3345   34.8607 H   0  0  0  0  0  0  0  0  0  0  0  0
  -17.4175  -23.3845   34.6124 H   0  0  0  0  0  0  0  0  0  0  0  0
  -16.0778  -24.9966   33.3979 H   0  0  0  0  0  0  0  0  0  0  0  0
  -15.4228  -24.8079   34.9952 H   0  0  0  0  0  0  0  0  0  0  0  0
  -13.8451  -22.9815   33.9089 H   0  0  0  0  0  0  0  0  0  0  0  0
  -14.3838  -23.6632   32.3992 H   0  0  0  0  0  0  0  0  0  0  0  0
  -13.3885  -25.7493   34.2578 H   0  0  0  0  0  0  0  0  0  0  0  0
  -12.4123  -23.5038   32.4090 H   0  0  0  0  0  0  0  0  0  0  0  0
   -9.5268  -23.2547   32.8704 H   0  0  0  0  0  0  0  0  0  0  0  0
  -11.4973  -21.3108   33.2358 H   0  0  0  0  0  0  0  0  0  0  0  0
  -10.3676  -20.8451   31.9900 H   0  0  0  0  0  0  0  0  0  0  0  0
  -12.9680  -22.4967   31.3065 H   0  0  0  0  0  0  0  0  0  0  0  0
  -12.9150  -20.9885   31.6852 H   0  0  0  0  0  0  0  0  0  0  0  0
  -10.9200  -21.0210   29.7301 H   0  0  0  0  0  0  0  0  0  0  0  0
  -12.5045  -21.5264   29.2175 H   0  0  0  0  0  0  0  0  0  0  0  0
  -12.9340  -23.1791   25.7182 H   0  0  0  0  0  0  0  0  0  0  0  0
  -11.8769  -25.3937   25.2048 H   0  0  0  0  0  0  0  0  0  0  0  0
  -10.2260  -26.2118   26.8849 H   0  0  0  0  0  0  0  0  0  0  0  0
  -10.7320  -24.7456   30.9833 H   0  0  0  0  0  0  0  0  0  0  0  0
   -9.4399  -24.2002   30.6228 H   0  0  0  0  0  0  0  0  0  0  0  0
  -13.4386  -24.4792   30.6760 H   0  0  0  0  0  0  0  0  0  0  0  0
  -12.6097  -25.7302   28.7652 H   0  0  0  0  0  0  0  0  0  0  0  0
  -10.6597  -27.2199   29.0144 H   0  0  0  0  0  0  0  0  0  0  0  0
   -9.6516  -27.5179   31.2547 H   0  0  0  0  0  0  0  0  0  0  0  0
  1  2  1  0
  2  3  1  0
  3  4  1  0
  4  5  1  0
  5  6  2  0
  5  7  1  0
  7  8  1  0
  8  9  1  0
  9 10  1  0
 10 11  1  0
 11 12  1  0
 12 13  1  0
 13 14  2  0
 14 15  1  0
 15 16  2  0
 16 17  1  0
 17 18  2  0
 12 19  1  0
  4 20  1  0
 20 21  2  0
 21 22  1  0
 22 23  2  0
 23 24  1  0
 24 25  2  0
 19  8  1  0
 25 20  1  0
 18 13  1  0
  1 26  1  0
  1 27  1  0
  1 28  1  0
  2 29  1  0
  2 30  1  0
  3 31  1  0
  3 32  1  0
  4 33  1  0
  7 34  1  0
  8 35  1  0
  9 36  1  0
  9 37  1  0
 10 38  1  0
 10 39  1  0
 11 40  1  0
 11 41  1  0
 15 42  1  0
 16 43  1  0
 17 44  1  0
 19 45  1  0
 19 46  1  0
 21 47  1  0
 22 48  1  0
 23 49  1  0
 24 50  1  0
M  END
>  <Energy>  (81) 
197.32706824134715

>  <compound_id>  (81) 
34636

>  <target_id>  (81) 
1

>  <reference_id>  (81) 
82

>  <inspiration_ids>  (81) 
[82, 54]

>  <energy_score>  (81) 
187.11040232406577

>  <distance_score>  (81) 
2.2712371512122975

>  <path>  (81) 
/opt/xchem-fragalysis-2/maxwin/BulkDock/SCRATCH/511015/C34636-P82/C34636-P82.minimised.mol

>  <scratch_subdir>  (81) 
/opt/xchem-fragalysis-2/maxwin/BulkDock/SCRATCH/511015/C34636-P82

>  <fragmenstein_runtime>  (81) 
7.9827880859375

>  <fragmenstein_outcome>  (81) 
too moved

>  <fragmenstein_mode>  (81) 
expansion

>  <fragmenstein_error>  (81) 


$$$$
C34636-P54
     RDKit          3D

 50 52  0  0  0  0  0  0  0  0999 V2000
  -17.8616  -21.5468   37.4457 C   0  0  0  0  0  0  0  0  0  0  0  0
  -16.5755  -20.8549   37.0171 C   0  0  0  0  0  0  0  0  0  0  0  0
  -16.4813  -20.7471   35.4885 C   0  0  0  0  0  0  0  0  0  0  0  0
  -15.2445  -19.9439   34.9785 C   0  0  0  0  0  0  0  0  0  0  0  0
  -13.9466  -20.7992   34.9997 C   0  0  0  0  0  0  0  0  0  0  0  0
  -13.9063  -21.6021   35.8927 O   0  0  0  0  0  0  0  0  0  0  0  0
  -12.9526  -20.4391   34.0115 N   0  0  0  0  0  0  0  0  0  0  0  0
  -11.5927  -20.9733   33.7592 C   0  0  0  0  0  0  0  0  0  0  0  0
  -10.7347  -19.7740   33.5634 C   0  0  0  0  0  0  0  0  0  0  0  0
  -11.0806  -19.0338   32.2893 C   0  0  0  0  0  0  0  0  0  0  0  0
  -11.6045  -19.9056   31.1494 C   0  0  0  0  0  0  0  0  0  0  0  0
  -11.0766  -21.2413   31.2573 N   0  0  0  0  0  0  0  0  0  0  0  0
  -11.1199  -22.0556   30.1378 C   0  0  0  0  0  0  0  0  0  0  0  0
  -11.4403  -21.5123   28.9497 N   0  0  0  0  0  0  0  0  0  0  0  0
  -11.4001  -22.3009   27.8590 C   0  0  0  0  0  0  0  0  0  0  0  0
  -11.0829  -23.6312   27.8967 C   0  0  0  0  0  0  0  0  0  0  0  0
  -10.7899  -24.1130   29.1436 C   0  0  0  0  0  0  0  0  0  0  0  0
  -10.7930  -23.3569   30.2571 N   0  0  0  0  0  0  0  0  0  0  0  0
  -11.1682  -21.9019   32.5586 C   0  0  0  0  0  0  0  0  0  0  0  0
  -15.6042  -19.2070   33.6998 C   0  0  0  0  0  0  0  0  0  0  0  0
  -15.0992  -17.9226   33.5174 C   0  0  0  0  0  0  0  0  0  0  0  0
  -15.6164  -17.1378   32.4956 C   0  0  0  0  0  0  0  0  0  0  0  0
  -16.6085  -17.6476   31.6734 C   0  0  0  0  0  0  0  0  0  0  0  0
  -17.0350  -18.9403   31.8943 C   0  0  0  0  0  0  0  0  0  0  0  0
  -16.5376  -19.7360   32.8591 N   0  0  0  0  0  0  0  0  0  0  0  0
  -17.9156  -22.5608   37.0368 H   0  0  0  0  0  0  0  0  0  0  0  0
  -18.7403  -20.9903   37.1045 H   0  0  0  0  0  0  0  0  0  0  0  0
  -17.9076  -21.6173   38.5370 H   0  0  0  0  0  0  0  0  0  0  0  0
  -15.7341  -21.4207   37.4247 H   0  0  0  0  0  0  0  0  0  0  0  0
  -16.5442  -19.8542   37.4631 H   0  0  0  0  0  0  0  0  0  0  0  0
  -17.4074  -20.2592   35.1564 H   0  0  0  0  0  0  0  0  0  0  0  0
  -16.4816  -21.7521   35.0467 H   0  0  0  0  0  0  0  0  0  0  0  0
  -15.0667  -19.1622   35.7299 H   0  0  0  0  0  0  0  0  0  0  0  0
  -13.3573  -19.7861   33.3628 H   0  0  0  0  0  0  0  0  0  0  0  0
  -11.3045  -21.4967   34.6748 H   0  0  0  0  0  0  0  0  0  0  0  0
  -10.8863  -19.1022   34.4102 H   0  0  0  0  0  0  0  0  0  0  0  0
   -9.6966  -20.1151   33.5038 H   0  0  0  0  0  0  0  0  0  0  0  0
  -11.8358  -18.3026   32.5617 H   0  0  0  0  0  0  0  0  0  0  0  0
  -10.2161  -18.4587   31.9604 H   0  0  0  0  0  0  0  0  0  0  0  0
  -11.3242  -19.4257   30.2045 H   0  0  0  0  0  0  0  0  0  0  0  0
  -12.6994  -19.9472   31.1802 H   0  0  0  0  0  0  0  0  0  0  0  0
  -11.6461  -21.8081   26.9233 H   0  0  0  0  0  0  0  0  0  0  0  0
  -11.0656  -24.2492   27.0121 H   0  0  0  0  0  0  0  0  0  0  0  0
  -10.5300  -25.1539   29.2978 H   0  0  0  0  0  0  0  0  0  0  0  0
  -11.7423  -22.7992   32.4601 H   0  0  0  0  0  0  0  0  0  0  0  0
  -10.1557  -22.2654   32.7932 H   0  0  0  0  0  0  0  0  0  0  0  0
  -14.3661  -17.5076   34.2040 H   0  0  0  0  0  0  0  0  0  0  0  0
  -15.2815  -16.1103   32.3803 H   0  0  0  0  0  0  0  0  0  0  0  0
  -17.0701  -17.0336   30.9089 H   0  0  0  0  0  0  0  0  0  0  0  0
  -17.8301  -19.3762   31.2958 H   0  0  0  0  0  0  0  0  0  0  0  0
  1  2  1  0
  2  3  1  0
  3  4  1  0
  4  5  1  0
  5  6  2  0
  5  7  1  0
  7  8  1  0
  8  9  1  0
  9 10  1  0
 10 11  1  0
 11 12  1  0
 12 13  1  0
 13 14  2  0
 14 15  1  0
 15 16  2  0
 16 17  1  0
 17 18  2  0
 12 19  1  0
  4 20  1  0
 20 21  2  0
 21 22  1  0
 22 23  2  0
 23 24  1  0
 24 25  2  0
 19  8  1  0
 25 20  1  0
 18 13  1  0
  1 26  1  0
  1 27  1  0
  1 28  1  0
  2 29  1  0
  2 30  1  0
  3 31  1  0
  3 32  1  0
  4 33  1  0
  7 34  1  0
  8 35  1  0
  9 36  1  0
  9 37  1  0
 10 38  1  0
 10 39  1  0
 11 40  1  0
 11 41  1  0
 15 42  1  0
 16 43  1  0
 17 44  1  0
 19 45  1  0
 19 46  1  0
 21 47  1  0
 22 48  1  0
 23 49  1  0
 24 50  1  0
M  END
>  <Energy>  (82) 
-0.74460917138991123

>  <compound_id>  (82) 
34636

>  <target_id>  (82) 
1

>  <reference_id>  (82) 
54

>  <inspiration_ids>  (82) 
[82, 54]

>  <energy_score>  (82) 
-10.961275088668287

>  <distance_score>  (82) 
5.154236618164223

>  <path>  (82) 
/opt/xchem-fragalysis-2/maxwin/BulkDock/SCRATCH/511015/C34636-P54/C34636-P54.minimised.mol

>  <scratch_subdir>  (82) 
/opt/xchem-fragalysis-2/maxwin/BulkDock/SCRATCH/511015/C34636-P54

>  <fragmenstein_runtime>  (82) 
11.23095989227295

>  <fragmenstein_outcome>  (82) 
too moved

>  <fragmenstein_mode>  (82) 
expansion

>  <fragmenstein_error>  (82) 


$$$$
C34637-P82
     RDKit          3D

 19 20  0  0  0  0  0  0  0  0999 V2000
   -9.9157  -25.4480   32.3967 C   0  0  0  0  0  0  0  0  0  0  0  0
  -10.2761  -25.1996   31.0983 C   0  0  0  0  0  0  0  0  0  0  0  0
  -11.4659  -24.5235   30.8602 C   0  0  0  0  0  0  0  0  0  0  0  0
  -11.7484  -24.1160   29.5028 C   0  0  0  0  0  0  0  0  0  0  0  0
  -11.7911  -22.7855   29.1531 C   0  0  0  0  0  0  0  0  0  0  0  0
  -11.9189  -22.3540   27.8930 N   0  0  0  0  0  0  0  0  0  0  0  0
  -12.0390  -23.3067   26.9556 C   0  0  0  0  0  0  0  0  0  0  0  0
  -11.9986  -24.6308   27.1602 N   0  0  0  0  0  0  0  0  0  0  0  0
  -11.8509  -25.0013   28.4454 C   0  0  0  0  0  0  0  0  0  0  0  0
  -12.2723  -24.1756   31.9411 C   0  0  0  0  0  0  0  0  0  0  0  0
  -11.8521  -24.5329   33.2054 C   0  0  0  0  0  0  0  0  0  0  0  0
  -10.6866  -25.1622   33.4566 N   0  0  0  0  0  0  0  0  0  0  0  0
   -8.9402  -25.8573   32.6208 H   0  0  0  0  0  0  0  0  0  0  0  0
   -9.5986  -25.4647   30.2954 H   0  0  0  0  0  0  0  0  0  0  0  0
  -11.7004  -21.9991   29.8951 H   0  0  0  0  0  0  0  0  0  0  0  0
  -12.1917  -22.9761   25.9335 H   0  0  0  0  0  0  0  0  0  0  0  0
  -11.8077  -26.0740   28.6102 H   0  0  0  0  0  0  0  0  0  0  0  0
  -13.2244  -23.6726   31.8005 H   0  0  0  0  0  0  0  0  0  0  0  0
  -12.4619  -24.3044   34.0716 H   0  0  0  0  0  0  0  0  0  0  0  0
  1  2  2  0
  2  3  1  0
  3  4  1  0
  4  5  2  0
  5  6  1  0
  6  7  2  0
  7  8  1  0
  8  9  2  0
  3 10  2  0
 10 11  1  0
 11 12  2  0
 12  1  1  0
  9  4  1  0
  1 13  1  0
  2 14  1  0
  5 15  1  0
  7 16  1  0
  9 17  1  0
 10 18  1  0
 11 19  1  0
M  END
>  <Energy>  (83) 
24.134153359229543

>  <compound_id>  (83) 
34637

>  <target_id>  (83) 
1

>  <reference_id>  (83) 
82

>  <inspiration_ids>  (83) 
[82, 54]

>  <energy_score>  (83) 
-11.496114080088425

>  <distance_score>  (83) 
1.5201732331679567

>  <path>  (83) 
/opt/xchem-fragalysis-2/maxwin/BulkDock/SCRATCH/511015/C34637-P82/C34637-P82.minimised.mol

>  <scratch_subdir>  (83) 
/opt/xchem-fragalysis-2/maxwin/BulkDock/SCRATCH/511015/C34637-P82

>  <fragmenstein_runtime>  (83) 
1.7237591743469238

>  <fragmenstein_outcome>  (83) 
too moved

>  <fragmenstein_mode>  (83) 
expansion

>  <fragmenstein_error>  (83) 


$$$$
C34637-P54
     RDKit          3D

 19 20  0  0  0  0  0  0  0  0999 V2000
   -9.2047  -24.5265   32.7167 C   0  0  0  0  0  0  0  0  0  0  0  0
   -9.7508  -24.3677   31.4573 C   0  0  0  0  0  0  0  0  0  0  0  0
  -10.5701  -23.2760   31.1896 C   0  0  0  0  0  0  0  0  0  0  0  0
  -11.0598  -23.0597   29.8305 C   0  0  0  0  0  0  0  0  0  0  0  0
  -11.0980  -21.8080   29.2587 C   0  0  0  0  0  0  0  0  0  0  0  0
  -11.4355  -21.5729   27.9818 N   0  0  0  0  0  0  0  0  0  0  0  0
  -11.7442  -22.6421   27.2375 C   0  0  0  0  0  0  0  0  0  0  0  0
  -11.7717  -23.9092   27.6687 N   0  0  0  0  0  0  0  0  0  0  0  0
  -11.4306  -24.0809   28.9629 C   0  0  0  0  0  0  0  0  0  0  0  0
  -10.7935  -22.3792   32.2363 C   0  0  0  0  0  0  0  0  0  0  0  0
  -10.2118  -22.6224   33.4713 C   0  0  0  0  0  0  0  0  0  0  0  0
   -9.4354  -23.6902   33.7396 N   0  0  0  0  0  0  0  0  0  0  0  0
   -8.5197  -25.3322   32.9486 H   0  0  0  0  0  0  0  0  0  0  0  0
   -9.4760  -25.0526   30.6711 H   0  0  0  0  0  0  0  0  0  0  0  0
  -10.8210  -20.9127   29.8080 H   0  0  0  0  0  0  0  0  0  0  0  0
  -12.0122  -22.4577   26.2021 H   0  0  0  0  0  0  0  0  0  0  0  0
  -11.4573  -25.1169   29.2893 H   0  0  0  0  0  0  0  0  0  0  0  0
  -11.4282  -21.5055   32.1195 H   0  0  0  0  0  0  0  0  0  0  0  0
  -10.3879  -21.9476   34.3061 H   0  0  0  0  0  0  0  0  0  0  0  0
  1  2  2  0
  2  3  1  0
  3  4  1  0
  4  5  2  0
  5  6  1  0
  6  7  2  0
  7  8  1  0
  8  9  2  0
  3 10  2  0
 10 11  1  0
 11 12  2  0
 12  1  1  0
  9  4  1  0
  1 13  1  0
  2 14  1  0
  5 15  1  0
  7 16  1  0
  9 17  1  0
 10 18  1  0
 11 19  1  0
M  END
>  <Energy>  (84) 
23.230003782758615

>  <compound_id>  (84) 
34637

>  <target_id>  (84) 
1

>  <reference_id>  (84) 
54

>  <inspiration_ids>  (84) 
[82, 54]

>  <energy_score>  (84) 
-12.400263656558986

>  <distance_score>  (84) 
1.9999714343817763

>  <path>  (84) 
/opt/xchem-fragalysis-2/maxwin/BulkDock/SCRATCH/511015/C34637-P54/C34637-P54.minimised.mol

>  <scratch_subdir>  (84) 
/opt/xchem-fragalysis-2/maxwin/BulkDock/SCRATCH/511015/C34637-P54

>  <fragmenstein_runtime>  (84) 
1.6691102981567383

>  <fragmenstein_outcome>  (84) 
too moved

>  <fragmenstein_mode>  (84) 
expansion

>  <fragmenstein_error>  (84) 


$$$$
C34638-P82
     RDKit          3D

 19 20  0  0  0  0  0  0  0  0999 V2000
  -12.3839  -24.1105   33.1120 C   0  0  0  0  0  0  0  0  0  0  0  0
  -11.3516  -24.9057   33.5602 C   0  0  0  0  0  0  0  0  0  0  0  0
  -10.3966  -25.4387   32.7791 N   0  0  0  0  0  0  0  0  0  0  0  0
  -10.5089  -25.2035   31.4606 C   0  0  0  0  0  0  0  0  0  0  0  0
  -11.5093  -24.4187   30.8914 C   0  0  0  0  0  0  0  0  0  0  0  0
  -11.5724  -24.1767   29.4652 C   0  0  0  0  0  0  0  0  0  0  0  0
  -11.7254  -22.9047   28.9467 C   0  0  0  0  0  0  0  0  0  0  0  0
  -11.8188  -22.6403   27.6437 N   0  0  0  0  0  0  0  0  0  0  0  0
  -11.7712  -23.7101   26.8415 C   0  0  0  0  0  0  0  0  0  0  0  0
  -11.5841  -24.9872   27.2116 N   0  0  0  0  0  0  0  0  0  0  0  0
  -11.4953  -25.1893   28.5320 C   0  0  0  0  0  0  0  0  0  0  0  0
  -12.4592  -23.8625   31.7547 C   0  0  0  0  0  0  0  0  0  0  0  0
  -13.1371  -23.7413   33.7960 H   0  0  0  0  0  0  0  0  0  0  0  0
  -11.2688  -25.1646   34.6057 H   0  0  0  0  0  0  0  0  0  0  0  0
   -9.7343  -25.6718   30.8604 H   0  0  0  0  0  0  0  0  0  0  0  0
  -11.7830  -22.0321   29.5897 H   0  0  0  0  0  0  0  0  0  0  0  0
  -11.9022  -23.5245   25.7797 H   0  0  0  0  0  0  0  0  0  0  0  0
  -11.3781  -26.2274   28.8294 H   0  0  0  0  0  0  0  0  0  0  0  0
  -13.3013  -23.2924   31.3673 H   0  0  0  0  0  0  0  0  0  0  0  0
  1  2  2  0
  2  3  1  0
  3  4  2  0
  4  5  1  0
  5  6  1  0
  6  7  2  0
  7  8  1  0
  8  9  2  0
  9 10  1  0
 10 11  2  0
  5 12  2  0
 12  1  1  0
 11  6  1  0
  1 13  1  0
  2 14  1  0
  4 15  1  0
  7 16  1  0
  9 17  1  0
 11 18  1  0
 12 19  1  0
M  END
>  <Energy>  (85) 
33.284364786640495

>  <compound_id>  (85) 
34638

>  <target_id>  (85) 
1

>  <reference_id>  (85) 
82

>  <inspiration_ids>  (85) 
[82, 54]

>  <energy_score>  (85) 
-10.73444964869941

>  <distance_score>  (85) 
2.0998637756248346

>  <path>  (85) 
/opt/xchem-fragalysis-2/maxwin/BulkDock/SCRATCH/511015/C34638-P82/C34638-P82.minimised.mol

>  <scratch_subdir>  (85) 
/opt/xchem-fragalysis-2/maxwin/BulkDock/SCRATCH/511015/C34638-P82

>  <fragmenstein_runtime>  (85) 
1.053285837173462

>  <fragmenstein_outcome>  (85) 
too moved

>  <fragmenstein_mode>  (85) 
expansion

>  <fragmenstein_error>  (85) 


$$$$
C34638-P54
     RDKit          3D

 19 20  0  0  0  0  0  0  0  0999 V2000
  -10.3033  -22.3414   33.1892 C   0  0  0  0  0  0  0  0  0  0  0  0
   -9.5621  -23.4468   33.5627 C   0  0  0  0  0  0  0  0  0  0  0  0
   -9.3652  -24.5143   32.7699 N   0  0  0  0  0  0  0  0  0  0  0  0
   -9.8705  -24.4236   31.5199 C   0  0  0  0  0  0  0  0  0  0  0  0
  -10.6089  -23.3585   31.0177 C   0  0  0  0  0  0  0  0  0  0  0  0
  -11.0704  -23.3415   29.6370 C   0  0  0  0  0  0  0  0  0  0  0  0
  -11.0466  -22.1939   28.8680 C   0  0  0  0  0  0  0  0  0  0  0  0
  -11.4370  -22.1468   27.5923 N   0  0  0  0  0  0  0  0  0  0  0  0
  -11.8622  -23.3014   27.0707 C   0  0  0  0  0  0  0  0  0  0  0  0
  -11.9235  -24.4842   27.6983 N   0  0  0  0  0  0  0  0  0  0  0  0
  -11.5274  -24.4704   28.9780 C   0  0  0  0  0  0  0  0  0  0  0  0
  -10.8392  -22.3058   31.9049 C   0  0  0  0  0  0  0  0  0  0  0  0
  -10.4776  -21.5276   33.8856 H   0  0  0  0  0  0  0  0  0  0  0  0
   -9.1156  -23.5083   34.5480 H   0  0  0  0  0  0  0  0  0  0  0  0
   -9.6366  -25.2623   30.8851 H   0  0  0  0  0  0  0  0  0  0  0  0
  -10.6873  -21.2447   29.2567 H   0  0  0  0  0  0  0  0  0  0  0  0
  -12.2011  -23.2672   26.0408 H   0  0  0  0  0  0  0  0  0  0  0  0
  -11.6014  -25.4334   29.4752 H   0  0  0  0  0  0  0  0  0  0  0  0
  -11.4440  -21.4476   31.6193 H   0  0  0  0  0  0  0  0  0  0  0  0
  1  2  2  0
  2  3  1  0
  3  4  2  0
  4  5  1  0
  5  6  1  0
  6  7  2  0
  7  8  1  0
  8  9  2  0
  9 10  1  0
 10 11  2  0
  5 12  2  0
 12  1  1  0
 11  6  1  0
  1 13  1  0
  2 14  1  0
  4 15  1  0
  7 16  1  0
  9 17  1  0
 11 18  1  0
 12 19  1  0
M  END
>  <Energy>  (86) 
33.12617301861129

>  <compound_id>  (86) 
34638

>  <target_id>  (86) 
1

>  <reference_id>  (86) 
54

>  <inspiration_ids>  (86) 
[82, 54]

>  <energy_score>  (86) 
-10.892641416727514

>  <distance_score>  (86) 
2.4086892995279254

>  <path>  (86) 
/opt/xchem-fragalysis-2/maxwin/BulkDock/SCRATCH/511015/C34638-P54/C34638-P54.minimised.mol

>  <scratch_subdir>  (86) 
/opt/xchem-fragalysis-2/maxwin/BulkDock/SCRATCH/511015/C34638-P54

>  <fragmenstein_runtime>  (86) 
1.0300421714782715

>  <fragmenstein_outcome>  (86) 
too moved

>  <fragmenstein_mode>  (86) 
expansion

>  <fragmenstein_error>  (86) 


$$$$
C34639-P82
     RDKit          3D

 46 48  0  0  0  0  0  0  0  0999 V2000
  -12.2526  -23.2729   29.8731 C   0  0  0  0  0  0  0  0  0  0  0  0
  -12.2979  -23.9526   31.2040 N   0  0  0  0  0  0  0  0  0  0  0  0
  -12.5546  -23.0023   32.2276 C   0  0  0  0  0  0  0  0  0  0  0  0
  -11.7996  -22.3529   32.8997 O   0  0  0  0  0  0  0  0  0  0  0  0
  -13.9841  -22.9068   32.5469 C   0  0  0  0  0  0  0  0  0  0  0  0
  -14.9403  -22.1669   31.8773 C   0  0  0  0  0  0  0  0  0  0  0  0
  -16.2679  -22.2755   32.2760 C   0  0  0  0  0  0  0  0  0  0  0  0
  -16.5745  -23.1097   33.3432 C   0  0  0  0  0  0  0  0  0  0  0  0
  -15.6610  -23.8108   34.0416 N   0  0  0  0  0  0  0  0  0  0  0  0
  -14.3850  -23.7040   33.6102 C   0  0  0  0  0  0  0  0  0  0  0  0
  -10.9854  -24.5476   30.6990 C   0  0  0  0  0  0  0  0  0  0  0  0
  -11.2558  -25.9871   30.1489 C   0  0  0  0  0  0  0  0  0  0  0  0
  -11.2707  -26.1919   28.7258 N   0  0  0  0  0  0  0  0  0  0  0  0
  -11.9036  -27.2046   27.9274 C   0  0  0  0  0  0  0  0  0  0  0  0
  -12.6463  -28.0931   28.2343 O   0  0  0  0  0  0  0  0  0  0  0  0
  -11.5733  -27.0069   26.4623 C   0  0  0  0  0  0  0  0  0  0  0  0
  -12.3088  -25.8303   25.9363 C   0  0  0  0  0  0  0  0  0  0  0  0
  -11.7459  -24.5752   25.8900 C   0  0  0  0  0  0  0  0  0  0  0  0
  -12.3861  -23.5050   25.4217 N   0  0  0  0  0  0  0  0  0  0  0  0
  -13.6352  -23.7124   24.9867 C   0  0  0  0  0  0  0  0  0  0  0  0
  -14.3077  -24.8732   25.0390 N   0  0  0  0  0  0  0  0  0  0  0  0
  -13.6231  -25.9159   25.5313 C   0  0  0  0  0  0  0  0  0  0  0  0
  -10.1491  -24.5889   31.9724 C   0  0  0  0  0  0  0  0  0  0  0  0
  -10.3898  -25.6478   33.0028 C   0  0  0  0  0  0  0  0  0  0  0  0
   -9.0921  -25.5894   32.2434 C   0  0  0  0  0  0  0  0  0  0  0  0
  -11.4353  -22.5421   29.7540 H   0  0  0  0  0  0  0  0  0  0  0  0
  -13.0800  -22.5692   29.8698 H   0  0  0  0  0  0  0  0  0  0  0  0
  -12.3921  -23.9275   29.0068 H   0  0  0  0  0  0  0  0  0  0  0  0
  -14.6833  -21.5662   31.0258 H   0  0  0  0  0  0  0  0  0  0  0  0
  -17.0585  -21.7540   31.7507 H   0  0  0  0  0  0  0  0  0  0  0  0
  -17.6017  -23.2412   33.6705 H   0  0  0  0  0  0  0  0  0  0  0  0
  -13.6648  -24.3142   34.1465 H   0  0  0  0  0  0  0  0  0  0  0  0
  -10.3516  -24.0455   29.9705 H   0  0  0  0  0  0  0  0  0  0  0  0
  -10.5760  -26.7529   30.5173 H   0  0  0  0  0  0  0  0  0  0  0  0
  -12.2482  -26.2658   30.4577 H   0  0  0  0  0  0  0  0  0  0  0  0
  -10.6420  -25.6579   28.1429 H   0  0  0  0  0  0  0  0  0  0  0  0
  -10.4946  -26.8967   26.3351 H   0  0  0  0  0  0  0  0  0  0  0  0
  -11.8468  -27.9120   25.9062 H   0  0  0  0  0  0  0  0  0  0  0  0
  -10.7320  -24.3805   26.2178 H   0  0  0  0  0  0  0  0  0  0  0  0
  -14.1420  -22.8768   24.5187 H   0  0  0  0  0  0  0  0  0  0  0  0
  -14.1730  -26.8527   25.5666 H   0  0  0  0  0  0  0  0  0  0  0  0
   -9.9342  -23.6011   32.3571 H   0  0  0  0  0  0  0  0  0  0  0  0
  -11.0242  -26.4847   32.7733 H   0  0  0  0  0  0  0  0  0  0  0  0
  -10.4363  -25.3609   34.0389 H   0  0  0  0  0  0  0  0  0  0  0  0
   -8.2106  -25.3160   32.7885 H   0  0  0  0  0  0  0  0  0  0  0  0
   -8.9034  -26.3829   31.5417 H   0  0  0  0  0  0  0  0  0  0  0  0
  1  2  1  0
  2  3  1  0
  3  4  2  0
  3  5  1  0
  5  6  2  0
  6  7  1  0
  7  8  2  0
  8  9  1  0
  9 10  2  0
  2 11  1  0
 11 12  1  0
 12 13  1  0
 13 14  1  0
 14 15  2  0
 14 16  1  0
 16 17  1  0
 17 18  2  0
 18 19  1  0
 19 20  2  0
 20 21  1  0
 21 22  2  0
 11 23  1  0
 23 24  1  0
 24 25  1  0
 10  5  1  0
 22 17  1  0
 25 23  1  0
  1 26  1  0
  1 27  1  0
  1 28  1  0
  6 29  1  0
  7 30  1  0
  8 31  1  0
 10 32  1  0
 11 33  1  0
 12 34  1  0
 12 35  1  0
 13 36  1  0
 16 37  1  0
 16 38  1  0
 18 39  1  0
 20 40  1  0
 22 41  1  0
 23 42  1  0
 24 43  1  0
 24 44  1  0
 25 45  1  0
 25 46  1  0
M  END
>  <Energy>  (87) 
148.16103634099437

>  <compound_id>  (87) 
34639

>  <target_id>  (87) 
1

>  <reference_id>  (87) 
82

>  <inspiration_ids>  (87) 
[82, 54]

>  <energy_score>  (87) 
58.0707173421402

>  <distance_score>  (87) 
4.57099521546709

>  <path>  (87) 
/opt/xchem-fragalysis-2/maxwin/BulkDock/SCRATCH/511015/C34639-P82/C34639-P82.minimised.mol

>  <scratch_subdir>  (87) 
/opt/xchem-fragalysis-2/maxwin/BulkDock/SCRATCH/511015/C34639-P82

>  <fragmenstein_runtime>  (87) 
10.818134307861328

>  <fragmenstein_outcome>  (87) 
too moved

>  <fragmenstein_mode>  (87) 
expansion

>  <fragmenstein_error>  (87) 


$$$$
C34639-P54
     RDKit          3D

 46 48  0  0  0  0  0  0  0  0999 V2000
  -12.6920  -26.0825   29.5881 C   0  0  0  0  0  0  0  0  0  0  0  0
  -12.0541  -27.3108   30.1884 N   0  0  0  0  0  0  0  0  0  0  0  0
  -12.4448  -27.4469   31.5466 C   0  0  0  0  0  0  0  0  0  0  0  0
  -11.9322  -27.0352   32.5510 O   0  0  0  0  0  0  0  0  0  0  0  0
  -13.6998  -28.2130   31.7348 C   0  0  0  0  0  0  0  0  0  0  0  0
  -14.4578  -28.7225   30.6822 C   0  0  0  0  0  0  0  0  0  0  0  0
  -15.6621  -29.3545   30.9626 C   0  0  0  0  0  0  0  0  0  0  0  0
  -16.0551  -29.4677   32.2871 C   0  0  0  0  0  0  0  0  0  0  0  0
  -15.3373  -29.0047   33.3316 N   0  0  0  0  0  0  0  0  0  0  0  0
  -14.1733  -28.3886   33.0309 C   0  0  0  0  0  0  0  0  0  0  0  0
  -10.7896  -26.6926   29.5647 C   0  0  0  0  0  0  0  0  0  0  0  0
  -10.5658  -26.7946   28.0023 C   0  0  0  0  0  0  0  0  0  0  0  0
  -10.3534  -25.4129   27.6110 N   0  0  0  0  0  0  0  0  0  0  0  0
  -11.2659  -24.4261   27.1087 C   0  0  0  0  0  0  0  0  0  0  0  0
  -12.4199  -24.5120   26.8058 O   0  0  0  0  0  0  0  0  0  0  0  0
  -10.5844  -23.0574   27.0877 C   0  0  0  0  0  0  0  0  0  0  0  0
  -10.6793  -22.4452   28.4586 C   0  0  0  0  0  0  0  0  0  0  0  0
  -11.4123  -21.3090   28.6903 C   0  0  0  0  0  0  0  0  0  0  0  0
  -11.7227  -20.8418   29.9146 N   0  0  0  0  0  0  0  0  0  0  0  0
  -11.2196  -21.5323   30.9473 C   0  0  0  0  0  0  0  0  0  0  0  0
  -10.3935  -22.5823   30.8476 N   0  0  0  0  0  0  0  0  0  0  0  0
  -10.1259  -22.9972   29.5969 C   0  0  0  0  0  0  0  0  0  0  0  0
   -9.6130  -27.4131   30.4101 C   0  0  0  0  0  0  0  0  0  0  0  0
   -7.6153  -28.4983   30.5913 C   0  0  0  0  0  0  0  0  0  0  0  0
   -7.6805  -26.2211   31.2192 C   0  0  0  0  0  0  0  0  0  0  0  0
  -13.7342  -26.0943   29.9415 H   0  0  0  0  0  0  0  0  0  0  0  0
  -12.8502  -26.1689   28.5131 H   0  0  0  0  0  0  0  0  0  0  0  0
  -12.3547  -25.1024   29.9506 H   0  0  0  0  0  0  0  0  0  0  0  0
  -14.1339  -28.6326   29.6508 H   0  0  0  0  0  0  0  0  0  0  0  0
  -16.2831  -29.7553   30.1689 H   0  0  0  0  0  0  0  0  0  0  0  0
  -16.9900  -29.9556   32.5507 H   0  0  0  0  0  0  0  0  0  0  0  0
  -13.6233  -28.0257   33.8943 H   0  0  0  0  0  0  0  0  0  0  0  0
  -10.6019  -25.6820   29.9601 H   0  0  0  0  0  0  0  0  0  0  0  0
   -9.6891  -27.3775   27.7077 H   0  0  0  0  0  0  0  0  0  0  0  0
  -11.4346  -27.1911   27.4702 H   0  0  0  0  0  0  0  0  0  0  0  0
   -9.4263  -25.0029   27.6789 H   0  0  0  0  0  0  0  0  0  0  0  0
   -9.5434  -23.1195   26.7981 H   0  0  0  0  0  0  0  0  0  0  0  0
  -11.0981  -22.4471   26.3374 H   0  0  0  0  0  0  0  0  0  0  0  0
  -11.7931  -20.7289   27.8614 H   0  0  0  0  0  0  0  0  0  0  0  0
  -11.4914  -21.2049   31.9454 H   0  0  0  0  0  0  0  0  0  0  0  0
   -9.4329  -23.8303   29.5616 H   0  0  0  0  0  0  0  0  0  0  0  0
  -10.1700  -28.3858   30.6383 H   0  0  0  0  0  0  0  0  0  0  0  0
   -7.4861  -28.7417   29.3475 H   0  0  0  0  0  0  0  0  0  0  0  0
   -6.9839  -26.8584   31.1905 H   0  0  0  0  0  0  0  0  0  0  0  0
   -7.1407  -27.9814   30.8986 H   0  0  0  0  0  0  0  0  0  0  0  0
   -7.8109  -25.8122   32.3114 H   0  0  0  0  0  0  0  0  0  0  0  0
  1  2  1  0
  2  3  1  0
  3  4  2  0
  3  5  1  0
  5  6  2  0
  6  7  1  0
  7  8  2  0
  8  9  1  0
  9 10  2  0
  2 11  1  0
 11 12  1  0
 12 13  1  0
 13 14  1  0
 14 15  2  0
 14 16  1  0
 16 17  1  0
 17 18  2  0
 18 19  1  0
 19 20  2  0
 20 21  1  0
 21 22  2  0
 11 23  1  0
 23 24  1  0
 24 25  1  0
 10  5  1  0
 22 17  1  0
 25 23  1  0
  1 26  1  0
  1 27  1  0
  1 28  1  0
  6 29  1  0
  7 30  1  0
  8 31  1  0
 10 32  1  0
 11 33  1  0
 12 34  1  0
 12 35  1  0
 13 36  1  0
 16 37  1  0
 16 38  1  0
 18 39  1  0
 20 40  1  0
 22 41  1  0
 23 42  1  0
 24 43  1  0
 24 44  1  0
 25 45  1  0
 25 46  1  0
M  END
>  <Energy>  (88) 
1595.619478698517

>  <compound_id>  (88) 
34639

>  <target_id>  (88) 
1

>  <reference_id>  (88) 
54

>  <inspiration_ids>  (88) 
[82, 54]

>  <energy_score>  (88) 
1505.5291596996767

>  <distance_score>  (88) 
4.262350877534611

>  <path>  (88) 
/opt/xchem-fragalysis-2/maxwin/BulkDock/SCRATCH/511015/C34639-P54/C34639-P54.minimised.mol

>  <scratch_subdir>  (88) 
/opt/xchem-fragalysis-2/maxwin/BulkDock/SCRATCH/511015/C34639-P54

>  <fragmenstein_runtime>  (88) 
8.47322130203247

>  <fragmenstein_outcome>  (88) 
too moved

>  <fragmenstein_mode>  (88) 
expansion

>  <fragmenstein_error>  (88) 


$$$$
C34640-P82
     RDKit          3D

 41 42  0  0  0  0  0  0  0  0999 V2000
  -16.5287  -21.2681   33.2084 C   0  0  0  0  0  0  0  0  0  0  0  0
  -16.1924  -22.3891   32.2399 C   0  0  0  0  0  0  0  0  0  0  0  0
  -14.9821  -22.0993   31.5422 O   0  0  0  0  0  0  0  0  0  0  0  0
  -13.7963  -22.4398   32.1210 C   0  0  0  0  0  0  0  0  0  0  0  0
  -13.6172  -23.1423   33.2941 C   0  0  0  0  0  0  0  0  0  0  0  0
  -12.3301  -23.4863   33.6469 C   0  0  0  0  0  0  0  0  0  0  0  0
  -11.2965  -22.9850   32.8962 C   0  0  0  0  0  0  0  0  0  0  0  0
  -11.4235  -22.2105   31.8252 N   0  0  0  0  0  0  0  0  0  0  0  0
  -12.6561  -22.1522   31.3614 C   0  0  0  0  0  0  0  0  0  0  0  0
  -12.7736  -22.5932   30.0742 N   0  0  0  0  0  0  0  0  0  0  0  0
  -11.7945  -22.5009   28.8997 C   0  0  0  0  0  0  0  0  0  0  0  0
  -10.7935  -21.9820   28.8215 O   0  0  0  0  0  0  0  0  0  0  0  0
  -12.5209  -23.3989   27.9031 N   0  0  0  0  0  0  0  0  0  0  0  0
  -12.1030  -23.9037   26.6519 C   0  0  0  0  0  0  0  0  0  0  0  0
  -11.1550  -25.0610   26.9737 C   0  0  0  0  0  0  0  0  0  0  0  0
  -11.5692  -25.8944   28.2187 C   0  0  0  0  0  0  0  0  0  0  0  0
  -10.9820  -25.5337   29.5634 C   0  0  0  0  0  0  0  0  0  0  0  0
  -11.6854  -25.4522   30.7366 C   0  0  0  0  0  0  0  0  0  0  0  0
  -11.1677  -25.5191   31.9788 N   0  0  0  0  0  0  0  0  0  0  0  0
   -9.8517  -25.4716   32.0344 C   0  0  0  0  0  0  0  0  0  0  0  0
   -9.0810  -25.3086   30.9801 N   0  0  0  0  0  0  0  0  0  0  0  0
   -9.6537  -25.3957   29.7705 C   0  0  0  0  0  0  0  0  0  0  0  0
  -15.7701  -21.1784   33.9917 H   0  0  0  0  0  0  0  0  0  0  0  0
  -16.5609  -20.3062   32.6855 H   0  0  0  0  0  0  0  0  0  0  0  0
  -17.4985  -21.4443   33.6821 H   0  0  0  0  0  0  0  0  0  0  0  0
  -16.9809  -22.4365   31.4800 H   0  0  0  0  0  0  0  0  0  0  0  0
  -16.1851  -23.3689   32.7268 H   0  0  0  0  0  0  0  0  0  0  0  0
  -14.4362  -23.5115   33.8962 H   0  0  0  0  0  0  0  0  0  0  0  0
  -12.1114  -24.1541   34.4601 H   0  0  0  0  0  0  0  0  0  0  0  0
  -10.2800  -23.2871   33.0794 H   0  0  0  0  0  0  0  0  0  0  0  0
  -13.6106  -23.0636   29.7799 H   0  0  0  0  0  0  0  0  0  0  0  0
  -13.3550  -23.7592   28.3219 H   0  0  0  0  0  0  0  0  0  0  0  0
  -11.6276  -23.1264   26.0685 H   0  0  0  0  0  0  0  0  0  0  0  0
  -12.9886  -24.2635   26.1199 H   0  0  0  0  0  0  0  0  0  0  0  0
  -10.1544  -24.6513   27.1171 H   0  0  0  0  0  0  0  0  0  0  0  0
  -11.1235  -25.7173   26.0970 H   0  0  0  0  0  0  0  0  0  0  0  0
  -11.2697  -26.9307   28.0301 H   0  0  0  0  0  0  0  0  0  0  0  0
  -12.6613  -25.9354   28.2808 H   0  0  0  0  0  0  0  0  0  0  0  0
  -12.7553  -25.3528   30.7126 H   0  0  0  0  0  0  0  0  0  0  0  0
   -9.3711  -25.5359   32.9994 H   0  0  0  0  0  0  0  0  0  0  0  0
   -8.9633  -25.3882   28.9397 H   0  0  0  0  0  0  0  0  0  0  0  0
  1  2  1  0
  2  3  1  0
  3  4  1  0
  4  5  2  0
  5  6  1  0
  6  7  2  0
  7  8  1  0
  8  9  2  0
  9 10  1  0
 10 11  1  0
 11 12  2  0
 11 13  1  0
 13 14  1  0
 14 15  1  0
 15 16  1  0
 16 17  1  0
 17 18  2  0
 18 19  1  0
 19 20  2  0
 20 21  1  0
 21 22  2  0
  9  4  1  0
 22 17  1  0
  1 23  1  0
  1 24  1  0
  1 25  1  0
  2 26  1  0
  2 27  1  0
  5 28  1  0
  6 29  1  0
  7 30  1  0
 10 31  1  0
 13 32  1  0
 14 33  1  0
 14 34  1  0
 15 35  1  0
 15 36  1  0
 16 37  1  0
 16 38  1  0
 18 39  1  0
 20 40  1  0
 22 41  1  0
M  END
>  <Energy>  (89) 
26.632703862987309

>  <compound_id>  (89) 
34640

>  <target_id>  (89) 
1

>  <reference_id>  (89) 
82

>  <inspiration_ids>  (89) 
[82, 54]

>  <energy_score>  (89) 
32.70935039567932

>  <distance_score>  (89) 
3.286392370193807

>  <path>  (89) 
/opt/xchem-fragalysis-2/maxwin/BulkDock/SCRATCH/511015/C34640-P82/C34640-P82.minimised.mol

>  <scratch_subdir>  (89) 
/opt/xchem-fragalysis-2/maxwin/BulkDock/SCRATCH/511015/C34640-P82

>  <fragmenstein_runtime>  (89) 
9.047739744186401

>  <fragmenstein_outcome>  (89) 
too moved

>  <fragmenstein_mode>  (89) 
expansion

>  <fragmenstein_error>  (89) 


$$$$
C34640-P54
     RDKit          3D

 41 42  0  0  0  0  0  0  0  0999 V2000
  -12.3742  -19.7924   32.5710 C   0  0  0  0  0  0  0  0  0  0  0  0
  -11.6235  -20.5257   31.4713 C   0  0  0  0  0  0  0  0  0  0  0  0
  -11.8510  -21.9343   31.4555 O   0  0  0  0  0  0  0  0  0  0  0  0
  -10.9440  -22.7253   32.0987 C   0  0  0  0  0  0  0  0  0  0  0  0
  -10.1735  -22.2716   33.1719 C   0  0  0  0  0  0  0  0  0  0  0  0
   -9.2058  -23.0849   33.7569 C   0  0  0  0  0  0  0  0  0  0  0  0
   -9.0465  -24.3643   33.2869 C   0  0  0  0  0  0  0  0  0  0  0  0
   -9.8239  -24.8729   32.3275 N   0  0  0  0  0  0  0  0  0  0  0  0
  -10.7508  -24.0622   31.7400 C   0  0  0  0  0  0  0  0  0  0  0  0
  -11.3493  -24.8125   30.7553 N   0  0  0  0  0  0  0  0  0  0  0  0
  -12.3451  -24.4015   29.6512 C   0  0  0  0  0  0  0  0  0  0  0  0
  -12.8589  -23.4060   29.4579 O   0  0  0  0  0  0  0  0  0  0  0  0
  -12.3581  -25.7037   28.8312 N   0  0  0  0  0  0  0  0  0  0  0  0
  -12.9328  -25.9864   27.5719 C   0  0  0  0  0  0  0  0  0  0  0  0
  -11.8129  -25.6798   26.5636 C   0  0  0  0  0  0  0  0  0  0  0  0
  -11.2278  -24.2300   26.5936 C   0  0  0  0  0  0  0  0  0  0  0  0
  -10.3497  -23.7971   27.7463 C   0  0  0  0  0  0  0  0  0  0  0  0
   -9.3656  -24.5712   28.3108 C   0  0  0  0  0  0  0  0  0  0  0  0
   -8.6163  -24.2229   29.3645 N   0  0  0  0  0  0  0  0  0  0  0  0
   -8.8822  -23.0299   29.8652 C   0  0  0  0  0  0  0  0  0  0  0  0
   -9.7799  -22.1636   29.3837 N   0  0  0  0  0  0  0  0  0  0  0  0
  -10.4740  -22.5517   28.3138 C   0  0  0  0  0  0  0  0  0  0  0  0
  -13.4140  -19.6242   32.2781 H   0  0  0  0  0  0  0  0  0  0  0  0
  -12.3789  -20.3418   33.5159 H   0  0  0  0  0  0  0  0  0  0  0  0
  -11.9246  -18.8103   32.7449 H   0  0  0  0  0  0  0  0  0  0  0  0
  -11.9410  -20.1371   30.4980 H   0  0  0  0  0  0  0  0  0  0  0  0
  -10.5649  -20.2978   31.5525 H   0  0  0  0  0  0  0  0  0  0  0  0
  -10.2876  -21.2678   33.5667 H   0  0  0  0  0  0  0  0  0  0  0  0
   -8.5683  -22.6953   34.5394 H   0  0  0  0  0  0  0  0  0  0  0  0
   -8.2799  -25.0264   33.6743 H   0  0  0  0  0  0  0  0  0  0  0  0
  -11.0281  -25.7406   30.5885 H   0  0  0  0  0  0  0  0  0  0  0  0
  -11.7299  -26.3690   29.2446 H   0  0  0  0  0  0  0  0  0  0  0  0
  -13.7951  -25.3340   27.4090 H   0  0  0  0  0  0  0  0  0  0  0  0
  -13.2330  -27.0363   27.5329 H   0  0  0  0  0  0  0  0  0  0  0  0
  -10.9958  -26.4016   26.6874 H   0  0  0  0  0  0  0  0  0  0  0  0
  -12.2469  -25.8694   25.5853 H   0  0  0  0  0  0  0  0  0  0  0  0
  -10.6091  -24.0953   25.7007 H   0  0  0  0  0  0  0  0  0  0  0  0
  -12.0684  -23.5310   26.4929 H   0  0  0  0  0  0  0  0  0  0  0  0
   -9.1251  -25.5334   27.8723 H   0  0  0  0  0  0  0  0  0  0  0  0
   -8.3271  -22.7398   30.7479 H   0  0  0  0  0  0  0  0  0  0  0  0
  -11.1992  -21.8282   27.9478 H   0  0  0  0  0  0  0  0  0  0  0  0
  1  2  1  0
  2  3  1  0
  3  4  1  0
  4  5  2  0
  5  6  1  0
  6  7  2  0
  7  8  1  0
  8  9  2  0
  9 10  1  0
 10 11  1  0
 11 12  2  0
 11 13  1  0
 13 14  1  0
 14 15  1  0
 15 16  1  0
 16 17  1  0
 17 18  2  0
 18 19  1  0
 19 20  2  0
 20 21  1  0
 21 22  2  0
  9  4  1  0
 22 17  1  0
  1 23  1  0
  1 24  1  0
  1 25  1  0
  2 26  1  0
  2 27  1  0
  5 28  1  0
  6 29  1  0
  7 30  1  0
 10 31  1  0
 13 32  1  0
 14 33  1  0
 14 34  1  0
 15 35  1  0
 15 36  1  0
 16 37  1  0
 16 38  1  0
 18 39  1  0
 20 40  1  0
 22 41  1  0
M  END
>  <Energy>  (90) 
-1.2970635248558366

>  <compound_id>  (90) 
34640

>  <target_id>  (90) 
1

>  <reference_id>  (90) 
54

>  <inspiration_ids>  (90) 
[82, 54]

>  <energy_score>  (90) 
4.779583007834312

>  <distance_score>  (90) 
3.4161231545683917

>  <path>  (90) 
/opt/xchem-fragalysis-2/maxwin/BulkDock/SCRATCH/511015/C34640-P54/C34640-P54.minimised.mol

>  <scratch_subdir>  (90) 
/opt/xchem-fragalysis-2/maxwin/BulkDock/SCRATCH/511015/C34640-P54

>  <fragmenstein_runtime>  (90) 
4.228976011276245

>  <fragmenstein_outcome>  (90) 
too moved

>  <fragmenstein_mode>  (90) 
expansion

>  <fragmenstein_error>  (90) 


$$$$
C34641-P82
     RDKit          3D

 45 46  0  0  0  0  0  0  0  0999 V2000
  -16.3622  -21.1148   33.8203 C   0  0  0  0  0  0  0  0  0  0  0  0
  -15.3555  -21.5878   32.8646 N   0  0  0  0  0  0  0  0  0  0  0  0
  -16.0102  -21.7765   31.5683 C   0  0  0  0  0  0  0  0  0  0  0  0
  -14.8038  -22.8944   33.3094 C   0  0  0  0  0  0  0  0  0  0  0  0
  -13.3642  -23.1936   32.9903 C   0  0  0  0  0  0  0  0  0  0  0  0
  -12.7829  -24.3550   33.4962 C   0  0  0  0  0  0  0  0  0  0  0  0
  -11.4895  -24.7094   33.1666 C   0  0  0  0  0  0  0  0  0  0  0  0
  -10.7858  -24.0485   32.2525 N   0  0  0  0  0  0  0  0  0  0  0  0
  -11.4555  -23.0404   31.6516 C   0  0  0  0  0  0  0  0  0  0  0  0
  -11.3613  -23.1168   30.2875 N   0  0  0  0  0  0  0  0  0  0  0  0
  -11.9292  -22.2103   29.2086 C   0  0  0  0  0  0  0  0  0  0  0  0
  -12.4873  -21.2378   29.2956 O   0  0  0  0  0  0  0  0  0  0  0  0
  -11.6114  -23.0533   27.9876 N   0  0  0  0  0  0  0  0  0  0  0  0
  -12.0082  -22.8994   26.6391 C   0  0  0  0  0  0  0  0  0  0  0  0
  -11.6325  -24.0579   25.7328 C   0  0  0  0  0  0  0  0  0  0  0  0
  -12.2606  -25.3890   26.1734 C   0  0  0  0  0  0  0  0  0  0  0  0
  -11.7214  -25.8221   27.4970 C   0  0  0  0  0  0  0  0  0  0  0  0
  -12.3618  -25.6372   28.6831 C   0  0  0  0  0  0  0  0  0  0  0  0
  -11.8002  -25.8183   29.8945 N   0  0  0  0  0  0  0  0  0  0  0  0
  -10.5165  -26.1408   29.9429 C   0  0  0  0  0  0  0  0  0  0  0  0
   -9.7750  -26.2504   28.8545 N   0  0  0  0  0  0  0  0  0  0  0  0
  -10.4220  -26.1831   27.6776 C   0  0  0  0  0  0  0  0  0  0  0  0
  -12.6130  -22.4564   32.1135 C   0  0  0  0  0  0  0  0  0  0  0  0
  -17.1678  -21.8425   33.9735 H   0  0  0  0  0  0  0  0  0  0  0  0
  -16.8079  -20.1747   33.4745 H   0  0  0  0  0  0  0  0  0  0  0  0
  -15.9050  -20.8935   34.7878 H   0  0  0  0  0  0  0  0  0  0  0  0
  -16.8179  -22.5171   31.5993 H   0  0  0  0  0  0  0  0  0  0  0  0
  -15.2819  -22.0862   30.8233 H   0  0  0  0  0  0  0  0  0  0  0  0
  -16.4386  -20.8304   31.2246 H   0  0  0  0  0  0  0  0  0  0  0  0
  -15.4301  -23.7201   32.9493 H   0  0  0  0  0  0  0  0  0  0  0  0
  -14.8864  -22.9470   34.3988 H   0  0  0  0  0  0  0  0  0  0  0  0
  -13.3615  -24.9880   34.1526 H   0  0  0  0  0  0  0  0  0  0  0  0
  -11.0051  -25.5718   33.6063 H   0  0  0  0  0  0  0  0  0  0  0  0
  -10.8545  -23.8606   29.8659 H   0  0  0  0  0  0  0  0  0  0  0  0
  -11.0272  -23.8191   28.2519 H   0  0  0  0  0  0  0  0  0  0  0  0
  -11.7565  -21.9001   26.3143 H   0  0  0  0  0  0  0  0  0  0  0  0
  -13.0943  -22.9466   26.6994 H   0  0  0  0  0  0  0  0  0  0  0  0
  -11.9772  -23.8059   24.7282 H   0  0  0  0  0  0  0  0  0  0  0  0
  -10.5517  -24.1762   25.6873 H   0  0  0  0  0  0  0  0  0  0  0  0
  -12.0333  -26.1637   25.4310 H   0  0  0  0  0  0  0  0  0  0  0  0
  -13.3534  -25.3078   26.2095 H   0  0  0  0  0  0  0  0  0  0  0  0
  -13.3551  -25.2294   28.7167 H   0  0  0  0  0  0  0  0  0  0  0  0
  -10.0502  -26.2944   30.9092 H   0  0  0  0  0  0  0  0  0  0  0  0
   -9.8227  -26.4670   26.8356 H   0  0  0  0  0  0  0  0  0  0  0  0
  -13.0817  -21.6477   31.5858 H   0  0  0  0  0  0  0  0  0  0  0  0
  1  2  1  0
  2  3  1  0
  2  4  1  0
  4  5  1  0
  5  6  2  0
  6  7  1  0
  7  8  2  0
  8  9  1  0
  9 10  1  0
 10 11  1  0
 11 12  2  0
 11 13  1  0
 13 14  1  0
 14 15  1  0
 15 16  1  0
 16 17  1  0
 17 18  2  0
 18 19  1  0
 19 20  2  0
 20 21  1  0
 21 22  2  0
  9 23  2  0
 23  5  1  0
 22 17  1  0
  1 24  1  0
  1 25  1  0
  1 26  1  0
  3 27  1  0
  3 28  1  0
  3 29  1  0
  4 30  1  0
  4 31  1  0
  6 32  1  0
  7 33  1  0
 10 34  1  0
 13 35  1  0
 14 36  1  0
 14 37  1  0
 15 38  1  0
 15 39  1  0
 16 40  1  0
 16 41  1  0
 18 42  1  0
 20 43  1  0
 22 44  1  0
 23 45  1  0
M  END
>  <Energy>  (91) 
-14.772102123919154

>  <compound_id>  (91) 
34641

>  <target_id>  (91) 
1

>  <reference_id>  (91) 
82

>  <inspiration_ids>  (91) 
[82, 54]

>  <energy_score>  (91) 
8.042681648590957

>  <distance_score>  (91) 
2.715766476066363

>  <path>  (91) 
/opt/xchem-fragalysis-2/maxwin/BulkDock/SCRATCH/511015/C34641-P82/C34641-P82.minimised.mol

>  <scratch_subdir>  (91) 
/opt/xchem-fragalysis-2/maxwin/BulkDock/SCRATCH/511015/C34641-P82

>  <fragmenstein_runtime>  (91) 
4.62277364730835

>  <fragmenstein_outcome>  (91) 
too moved

>  <fragmenstein_mode>  (91) 
expansion

>  <fragmenstein_error>  (91) 


$$$$
C34641-P54
     RDKit          3D

 45 46  0  0  0  0  0  0  0  0999 V2000
   -9.0758  -20.9763   33.0453 C   0  0  0  0  0  0  0  0  0  0  0  0
  -10.4511  -20.7057   32.6523 N   0  0  0  0  0  0  0  0  0  0  0  0
  -11.3571  -20.6734   33.7908 C   0  0  0  0  0  0  0  0  0  0  0  0
  -10.9588  -21.4779   31.5137 C   0  0  0  0  0  0  0  0  0  0  0  0
  -10.6649  -22.9550   31.4279 C   0  0  0  0  0  0  0  0  0  0  0  0
   -9.9899  -23.6697   32.4099 C   0  0  0  0  0  0  0  0  0  0  0  0
   -9.9014  -25.0242   32.3010 C   0  0  0  0  0  0  0  0  0  0  0  0
  -10.5311  -25.7116   31.3433 N   0  0  0  0  0  0  0  0  0  0  0  0
  -11.0570  -25.0477   30.3221 C   0  0  0  0  0  0  0  0  0  0  0  0
  -11.5662  -25.7974   29.2836 N   0  0  0  0  0  0  0  0  0  0  0  0
  -11.9439  -27.2433   29.2182 C   0  0  0  0  0  0  0  0  0  0  0  0
  -11.8211  -28.0937   30.0152 O   0  0  0  0  0  0  0  0  0  0  0  0
  -12.6059  -27.2636   27.8947 N   0  0  0  0  0  0  0  0  0  0  0  0
  -13.3714  -28.2932   27.2421 C   0  0  0  0  0  0  0  0  0  0  0  0
  -14.8652  -28.0996   27.5549 C   0  0  0  0  0  0  0  0  0  0  0  0
  -15.5499  -26.9202   26.8256 C   0  0  0  0  0  0  0  0  0  0  0  0
  -14.7910  -25.6333   26.8586 C   0  0  0  0  0  0  0  0  0  0  0  0
  -14.2130  -25.1167   25.7221 C   0  0  0  0  0  0  0  0  0  0  0  0
  -13.3420  -24.0968   25.7194 N   0  0  0  0  0  0  0  0  0  0  0  0
  -13.0263  -23.5884   26.9029 C   0  0  0  0  0  0  0  0  0  0  0  0
  -13.5286  -24.0051   28.0783 N   0  0  0  0  0  0  0  0  0  0  0  0
  -14.4662  -24.9755   28.0226 C   0  0  0  0  0  0  0  0  0  0  0  0
  -11.1275  -23.6668   30.3123 C   0  0  0  0  0  0  0  0  0  0  0  0
   -8.9967  -21.4929   34.0056 H   0  0  0  0  0  0  0  0  0  0  0  0
   -8.5107  -20.0556   33.1236 H   0  0  0  0  0  0  0  0  0  0  0  0
   -8.5267  -21.5802   32.3197 H   0  0  0  0  0  0  0  0  0  0  0  0
  -11.3863  -21.6315   34.3134 H   0  0  0  0  0  0  0  0  0  0  0  0
  -12.3705  -20.3974   33.4844 H   0  0  0  0  0  0  0  0  0  0  0  0
  -11.0488  -19.9090   34.5089 H   0  0  0  0  0  0  0  0  0  0  0  0
  -10.5591  -21.0263   30.5990 H   0  0  0  0  0  0  0  0  0  0  0  0
  -12.0423  -21.3310   31.4278 H   0  0  0  0  0  0  0  0  0  0  0  0
   -9.6135  -23.2513   33.3265 H   0  0  0  0  0  0  0  0  0  0  0  0
   -9.3980  -25.6057   33.0650 H   0  0  0  0  0  0  0  0  0  0  0  0
  -11.8872  -25.3340   28.4596 H   0  0  0  0  0  0  0  0  0  0  0  0
  -12.4546  -26.3854   27.4356 H   0  0  0  0  0  0  0  0  0  0  0  0
  -13.1816  -28.2445   26.1666 H   0  0  0  0  0  0  0  0  0  0  0  0
  -13.0355  -29.2594   27.6305 H   0  0  0  0  0  0  0  0  0  0  0  0
  -14.9929  -27.9707   28.6379 H   0  0  0  0  0  0  0  0  0  0  0  0
  -15.4034  -29.0167   27.2855 H   0  0  0  0  0  0  0  0  0  0  0  0
  -16.5440  -26.7585   27.2610 H   0  0  0  0  0  0  0  0  0  0  0  0
  -15.7267  -27.2171   25.7836 H   0  0  0  0  0  0  0  0  0  0  0  0
  -14.4005  -25.5579   24.7490 H   0  0  0  0  0  0  0  0  0  0  0  0
  -12.3130  -22.7702   26.9141 H   0  0  0  0  0  0  0  0  0  0  0  0
  -14.8767  -25.2851   28.9803 H   0  0  0  0  0  0  0  0  0  0  0  0
  -11.6133  -23.1372   29.5041 H   0  0  0  0  0  0  0  0  0  0  0  0
  1  2  1  0
  2  3  1  0
  2  4  1  0
  4  5  1  0
  5  6  2  0
  6  7  1  0
  7  8  2  0
  8  9  1  0
  9 10  1  0
 10 11  1  0
 11 12  2  0
 11 13  1  0
 13 14  1  0
 14 15  1  0
 15 16  1  0
 16 17  1  0
 17 18  2  0
 18 19  1  0
 19 20  2  0
 20 21  1  0
 21 22  2  0
  9 23  2  0
 23  5  1  0
 22 17  1  0
  1 24  1  0
  1 25  1  0
  1 26  1  0
  3 27  1  0
  3 28  1  0
  3 29  1  0
  4 30  1  0
  4 31  1  0
  6 32  1  0
  7 33  1  0
 10 34  1  0
 13 35  1  0
 14 36  1  0
 14 37  1  0
 15 38  1  0
 15 39  1  0
 16 40  1  0
 16 41  1  0
 18 42  1  0
 20 43  1  0
 22 44  1  0
 23 45  1  0
M  END
>  <Energy>  (92) 
-38.597059907042933

>  <compound_id>  (92) 
34641

>  <target_id>  (92) 
1

>  <reference_id>  (92) 
54

>  <inspiration_ids>  (92) 
[82, 54]

>  <energy_score>  (92) 
0.6735508140174531

>  <distance_score>  (92) 
3.5762457534546406

>  <path>  (92) 
/opt/xchem-fragalysis-2/maxwin/BulkDock/SCRATCH/511015/C34641-P54/C34641-P54.minimised.mol

>  <scratch_subdir>  (92) 
/opt/xchem-fragalysis-2/maxwin/BulkDock/SCRATCH/511015/C34641-P54

>  <fragmenstein_runtime>  (92) 
7.900616407394409

>  <fragmenstein_outcome>  (92) 
too moved

>  <fragmenstein_mode>  (92) 
expansion

>  <fragmenstein_error>  (92) 


$$$$
C30992-P82
     RDKit          3D

 43 44  0  0  0  0  0  0  0  0999 V2000
  -13.4284  -22.2635   31.8371 C   0  0  0  0  0  0  0  0  0  0  0  0
  -13.1174  -23.2460   32.9503 C   0  0  0  0  0  0  0  0  0  0  0  0
  -14.4145  -23.7454   33.5751 C   0  0  0  0  0  0  0  0  0  0  0  0
  -12.1167  -24.3094   32.5708 C   0  0  0  0  0  0  0  0  0  0  0  0
  -11.1416  -24.6845   33.4515 C   0  0  0  0  0  0  0  0  0  0  0  0
   -9.9900  -25.3113   32.9877 C   0  0  0  0  0  0  0  0  0  0  0  0
   -9.7839  -25.6909   31.7253 N   0  0  0  0  0  0  0  0  0  0  0  0
  -10.8705  -25.6557   30.9801 C   0  0  0  0  0  0  0  0  0  0  0  0
  -10.7831  -26.0365   29.6689 N   0  0  0  0  0  0  0  0  0  0  0  0
  -11.5578  -27.1230   28.8881 C   0  0  0  0  0  0  0  0  0  0  0  0
  -12.3128  -27.8912   29.2516 O   0  0  0  0  0  0  0  0  0  0  0  0
  -11.0823  -26.7904   27.4535 N   0  0  0  0  0  0  0  0  0  0  0  0
  -11.5293  -27.2892   26.1929 C   0  0  0  0  0  0  0  0  0  0  0  0
  -12.8570  -26.5930   25.8696 C   0  0  0  0  0  0  0  0  0  0  0  0
  -12.7102  -25.0782   25.6474 C   0  0  0  0  0  0  0  0  0  0  0  0
  -12.3964  -24.1462   26.7491 C   0  0  0  0  0  0  0  0  0  0  0  0
  -12.0177  -22.8747   26.4760 C   0  0  0  0  0  0  0  0  0  0  0  0
  -11.5829  -21.9805   27.3809 N   0  0  0  0  0  0  0  0  0  0  0  0
  -11.5449  -22.3631   28.6359 C   0  0  0  0  0  0  0  0  0  0  0  0
  -11.9485  -23.5464   29.0196 N   0  0  0  0  0  0  0  0  0  0  0  0
  -12.4518  -24.3677   28.0767 C   0  0  0  0  0  0  0  0  0  0  0  0
  -12.0249  -24.9444   31.3583 C   0  0  0  0  0  0  0  0  0  0  0  0
  -14.0727  -21.4627   32.2126 H   0  0  0  0  0  0  0  0  0  0  0  0
  -12.5077  -21.8183   31.4504 H   0  0  0  0  0  0  0  0  0  0  0  0
  -13.9564  -22.7394   31.0153 H   0  0  0  0  0  0  0  0  0  0  0  0
  -12.6184  -22.6357   33.7151 H   0  0  0  0  0  0  0  0  0  0  0  0
  -15.1209  -24.0925   32.8244 H   0  0  0  0  0  0  0  0  0  0  0  0
  -14.2445  -24.5515   34.2903 H   0  0  0  0  0  0  0  0  0  0  0  0
  -14.9212  -22.9289   34.1014 H   0  0  0  0  0  0  0  0  0  0  0  0
  -11.2871  -24.4417   34.4935 H   0  0  0  0  0  0  0  0  0  0  0  0
   -9.1599  -25.5187   33.6491 H   0  0  0  0  0  0  0  0  0  0  0  0
  -10.2582  -25.4753   29.0321 H   0  0  0  0  0  0  0  0  0  0  0  0
  -10.3407  -26.1089   27.4917 H   0  0  0  0  0  0  0  0  0  0  0  0
  -10.7672  -27.1055   25.4362 H   0  0  0  0  0  0  0  0  0  0  0  0
  -11.6990  -28.3654   26.2886 H   0  0  0  0  0  0  0  0  0  0  0  0
  -13.5975  -26.7867   26.6549 H   0  0  0  0  0  0  0  0  0  0  0  0
  -13.2491  -27.0385   24.9473 H   0  0  0  0  0  0  0  0  0  0  0  0
  -13.6197  -24.7192   25.1499 H   0  0  0  0  0  0  0  0  0  0  0  0
  -11.8592  -24.9611   24.9714 H   0  0  0  0  0  0  0  0  0  0  0  0
  -12.0929  -22.5097   25.4539 H   0  0  0  0  0  0  0  0  0  0  0  0
  -11.2004  -21.6621   29.3787 H   0  0  0  0  0  0  0  0  0  0  0  0
  -12.9550  -25.2413   28.4661 H   0  0  0  0  0  0  0  0  0  0  0  0
  -12.8490  -24.8279   30.6713 H   0  0  0  0  0  0  0  0  0  0  0  0
  1  2  1  0
  2  3  1  0
  2  4  1  0
  4  5  2  0
  5  6  1  0
  6  7  2  0
  7  8  1  0
  8  9  1  0
  9 10  1  0
 10 11  2  0
 10 12  1  0
 12 13  1  0
 13 14  1  0
 14 15  1  0
 15 16  1  0
 16 17  2  0
 17 18  1  0
 18 19  2  0
 19 20  1  0
 20 21  2  0
  8 22  2  0
 22  4  1  0
 21 16  1  0
  1 23  1  0
  1 24  1  0
  1 25  1  0
  2 26  1  0
  3 27  1  0
  3 28  1  0
  3 29  1  0
  5 30  1  0
  6 31  1  0
  9 32  1  0
 12 33  1  0
 13 34  1  0
 13 35  1  0
 14 36  1  0
 14 37  1  0
 15 38  1  0
 15 39  1  0
 17 40  1  0
 19 41  1  0
 21 42  1  0
 22 43  1  0
M  END
>  <Energy>  (93) 
-3.2794012559230423

>  <compound_id>  (93) 
30992

>  <target_id>  (93) 
1

>  <reference_id>  (93) 
82

>  <inspiration_ids>  (93) 
[82, 54]

>  <energy_score>  (93) 
39.79738477416171

>  <distance_score>  (93) 
2.510972704906071

>  <path>  (93) 
/opt/xchem-fragalysis-2/maxwin/BulkDock/SCRATCH/511015/C30992-P82/C30992-P82.minimised.mol

>  <scratch_subdir>  (93) 
/opt/xchem-fragalysis-2/maxwin/BulkDock/SCRATCH/511015/C30992-P82

>  <fragmenstein_runtime>  (93) 
6.450162649154663

>  <fragmenstein_outcome>  (93) 
too moved

>  <fragmenstein_mode>  (93) 
expansion

>  <fragmenstein_error>  (93) 


$$$$
C30992-P54
     RDKit          3D

 43 44  0  0  0  0  0  0  0  0999 V2000
  -17.3161  -26.8884   31.4801 C   0  0  0  0  0  0  0  0  0  0  0  0
  -16.1877  -25.9974   32.0273 C   0  0  0  0  0  0  0  0  0  0  0  0
  -16.6357  -25.4212   33.3757 C   0  0  0  0  0  0  0  0  0  0  0  0
  -14.9047  -26.8067   32.0675 C   0  0  0  0  0  0  0  0  0  0  0  0
  -14.4011  -27.4340   33.2043 C   0  0  0  0  0  0  0  0  0  0  0  0
  -13.1487  -28.0408   33.1657 C   0  0  0  0  0  0  0  0  0  0  0  0
  -12.3822  -28.0883   32.0756 N   0  0  0  0  0  0  0  0  0  0  0  0
  -12.9486  -27.6142   30.9646 C   0  0  0  0  0  0  0  0  0  0  0  0
  -12.1650  -27.4906   29.8698 N   0  0  0  0  0  0  0  0  0  0  0  0
  -11.1322  -26.4289   29.5092 C   0  0  0  0  0  0  0  0  0  0  0  0
  -10.7420  -25.5551   30.1105 O   0  0  0  0  0  0  0  0  0  0  0  0
  -10.8345  -26.8495   28.0590 N   0  0  0  0  0  0  0  0  0  0  0  0
  -10.0654  -26.2053   27.0552 C   0  0  0  0  0  0  0  0  0  0  0  0
  -10.9604  -25.4051   26.1345 C   0  0  0  0  0  0  0  0  0  0  0  0
  -12.1096  -24.5887   26.7230 C   0  0  0  0  0  0  0  0  0  0  0  0
  -11.7314  -23.6286   27.7876 C   0  0  0  0  0  0  0  0  0  0  0  0
  -10.6570  -22.7741   27.7493 C   0  0  0  0  0  0  0  0  0  0  0  0
  -10.3125  -21.9496   28.7535 N   0  0  0  0  0  0  0  0  0  0  0  0
  -11.1028  -21.9866   29.8309 C   0  0  0  0  0  0  0  0  0  0  0  0
  -12.2133  -22.7148   29.9439 N   0  0  0  0  0  0  0  0  0  0  0  0
  -12.4882  -23.5351   28.9247 C   0  0  0  0  0  0  0  0  0  0  0  0
  -14.1634  -26.9530   30.9069 C   0  0  0  0  0  0  0  0  0  0  0  0
  -17.0801  -27.2590   30.4762 H   0  0  0  0  0  0  0  0  0  0  0  0
  -18.2550  -26.3278   31.4123 H   0  0  0  0  0  0  0  0  0  0  0  0
  -17.4876  -27.7593   32.1234 H   0  0  0  0  0  0  0  0  0  0  0  0
  -16.0884  -25.1689   31.3213 H   0  0  0  0  0  0  0  0  0  0  0  0
  -16.9380  -26.2093   34.0745 H   0  0  0  0  0  0  0  0  0  0  0  0
  -15.8466  -24.8391   33.8561 H   0  0  0  0  0  0  0  0  0  0  0  0
  -17.4987  -24.7600   33.2387 H   0  0  0  0  0  0  0  0  0  0  0  0
  -14.9473  -27.4261   34.1428 H   0  0  0  0  0  0  0  0  0  0  0  0
  -12.7282  -28.5164   34.0465 H   0  0  0  0  0  0  0  0  0  0  0  0
  -12.3376  -28.0721   29.0783 H   0  0  0  0  0  0  0  0  0  0  0  0
  -11.4110  -27.6299   27.8092 H   0  0  0  0  0  0  0  0  0  0  0  0
   -9.3510  -25.5449   27.5539 H   0  0  0  0  0  0  0  0  0  0  0  0
   -9.5106  -26.9689   26.5042 H   0  0  0  0  0  0  0  0  0  0  0  0
  -11.4120  -26.1287   25.4493 H   0  0  0  0  0  0  0  0  0  0  0  0
  -10.3240  -24.7257   25.5685 H   0  0  0  0  0  0  0  0  0  0  0  0
  -12.8660  -25.2904   27.0997 H   0  0  0  0  0  0  0  0  0  0  0  0
  -12.6139  -24.0211   25.9327 H   0  0  0  0  0  0  0  0  0  0  0  0
   -9.9976  -22.7388   26.8920 H   0  0  0  0  0  0  0  0  0  0  0  0
  -10.8373  -21.3588   30.6732 H   0  0  0  0  0  0  0  0  0  0  0  0
  -13.3710  -24.1493   29.0578 H   0  0  0  0  0  0  0  0  0  0  0  0
  -14.5030  -26.5046   29.9783 H   0  0  0  0  0  0  0  0  0  0  0  0
  1  2  1  0
  2  3  1  0
  2  4  1  0
  4  5  2  0
  5  6  1  0
  6  7  2  0
  7  8  1  0
  8  9  1  0
  9 10  1  0
 10 11  2  0
 10 12  1  0
 12 13  1  0
 13 14  1  0
 14 15  1  0
 15 16  1  0
 16 17  2  0
 17 18  1  0
 18 19  2  0
 19 20  1  0
 20 21  2  0
  8 22  2  0
 22  4  1  0
 21 16  1  0
  1 23  1  0
  1 24  1  0
  1 25  1  0
  2 26  1  0
  3 27  1  0
  3 28  1  0
  3 29  1  0
  5 30  1  0
  6 31  1  0
  9 32  1  0
 12 33  1  0
 13 34  1  0
 13 35  1  0
 14 36  1  0
 14 37  1  0
 15 38  1  0
 15 39  1  0
 17 40  1  0
 19 41  1  0
 21 42  1  0
 22 43  1  0
M  END
>  <Energy>  (94) 
-18.809975608779233

>  <compound_id>  (94) 
30992

>  <target_id>  (94) 
1

>  <reference_id>  (94) 
54

>  <inspiration_ids>  (94) 
[82, 54]

>  <energy_score>  (94) 
24.266810421305774

>  <distance_score>  (94) 
3.7043664852561724

>  <path>  (94) 
/opt/xchem-fragalysis-2/maxwin/BulkDock/SCRATCH/511015/C30992-P54/C30992-P54.minimised.mol

>  <scratch_subdir>  (94) 
/opt/xchem-fragalysis-2/maxwin/BulkDock/SCRATCH/511015/C30992-P54

>  <fragmenstein_runtime>  (94) 
5.600092887878418

>  <fragmenstein_outcome>  (94) 
too moved

>  <fragmenstein_mode>  (94) 
expansion

>  <fragmenstein_error>  (94) 


$$$$
C34642-P82
     RDKit          3D

 38 39  0  0  0  0  0  0  0  0999 V2000
   -9.4977  -25.4391   29.6766 C   0  0  0  0  0  0  0  0  0  0  0  0
  -10.6143  -26.3011   30.2185 C   0  0  0  0  0  0  0  0  0  0  0  0
  -10.1369  -27.3894   31.1351 C   0  0  0  0  0  0  0  0  0  0  0  0
  -11.4752  -27.0542   29.0788 C   0  0  0  0  0  0  0  0  0  0  0  0
  -12.2562  -27.8726   29.3840 O   0  0  0  0  0  0  0  0  0  0  0  0
  -11.1509  -26.4384   27.6809 N   0  0  0  0  0  0  0  0  0  0  0  0
  -11.7855  -26.6358   26.4005 C   0  0  0  0  0  0  0  0  0  0  0  0
  -12.8529  -25.5342   26.1799 C   0  0  0  0  0  0  0  0  0  0  0  0
  -12.4846  -24.2618   26.8563 C   0  0  0  0  0  0  0  0  0  0  0  0
  -12.0787  -23.1064   26.3013 C   0  0  0  0  0  0  0  0  0  0  0  0
  -11.6103  -22.0678   27.0337 N   0  0  0  0  0  0  0  0  0  0  0  0
  -11.5184  -22.1939   28.3470 C   0  0  0  0  0  0  0  0  0  0  0  0
  -11.9162  -23.2492   28.9845 N   0  0  0  0  0  0  0  0  0  0  0  0
  -12.4530  -24.2089   28.2180 C   0  0  0  0  0  0  0  0  0  0  0  0
  -11.3290  -25.3357   31.1727 C   0  0  0  0  0  0  0  0  0  0  0  0
  -10.7067  -24.6619   32.2253 C   0  0  0  0  0  0  0  0  0  0  0  0
  -11.3538  -23.5752   32.7854 C   0  0  0  0  0  0  0  0  0  0  0  0
  -12.5479  -23.1644   32.2904 C   0  0  0  0  0  0  0  0  0  0  0  0
  -13.0883  -21.9935   32.5889 F   0  0  0  0  0  0  0  0  0  0  0  0
  -13.1558  -23.9708   31.4141 C   0  0  0  0  0  0  0  0  0  0  0  0
  -12.5742  -25.0503   30.8726 N   0  0  0  0  0  0  0  0  0  0  0  0
   -8.9340  -25.9583   28.8994 H   0  0  0  0  0  0  0  0  0  0  0  0
   -8.8327  -25.1099   30.4655 H   0  0  0  0  0  0  0  0  0  0  0  0
   -9.8932  -24.5527   29.1943 H   0  0  0  0  0  0  0  0  0  0  0  0
  -10.7119  -28.3113   31.0964 H   0  0  0  0  0  0  0  0  0  0  0  0
   -9.0923  -27.6372   30.9602 H   0  0  0  0  0  0  0  0  0  0  0  0
  -10.3100  -27.0828   32.1622 H   0  0  0  0  0  0  0  0  0  0  0  0
  -10.4787  -25.6976   27.7874 H   0  0  0  0  0  0  0  0  0  0  0  0
  -11.0106  -26.5719   25.6346 H   0  0  0  0  0  0  0  0  0  0  0  0
  -12.2440  -27.6282   26.3669 H   0  0  0  0  0  0  0  0  0  0  0  0
  -13.8006  -25.8879   26.6057 H   0  0  0  0  0  0  0  0  0  0  0  0
  -13.0538  -25.3912   25.1199 H   0  0  0  0  0  0  0  0  0  0  0  0
  -12.1204  -22.9451   25.2280 H   0  0  0  0  0  0  0  0  0  0  0  0
  -11.1136  -21.3933   28.9386 H   0  0  0  0  0  0  0  0  0  0  0  0
  -12.9130  -25.0271   28.7561 H   0  0  0  0  0  0  0  0  0  0  0  0
   -9.7085  -24.9258   32.5583 H   0  0  0  0  0  0  0  0  0  0  0  0
  -10.9507  -23.0057   33.5826 H   0  0  0  0  0  0  0  0  0  0  0  0
  -14.1426  -23.7001   31.0874 H   0  0  0  0  0  0  0  0  0  0  0  0
  1  2  1  0
  2  3  1  0
  2  4  1  0
  4  5  2  0
  4  6  1  0
  6  7  1  0
  7  8  1  0
  8  9  1  0
  9 10  2  0
 10 11  1  0
 11 12  2  0
 12 13  1  0
 13 14  2  0
  2 15  1  0
 15 16  2  0
 16 17  1  0
 17 18  2  0
 18 19  1  0
 18 20  1  0
 20 21  2  0
 14  9  1  0
 21 15  1  0
  1 22  1  0
  1 23  1  0
  1 24  1  0
  3 25  1  0
  3 26  1  0
  3 27  1  0
  6 28  1  0
  7 29  1  0
  7 30  1  0
  8 31  1  0
  8 32  1  0
 10 33  1  0
 12 34  1  0
 14 35  1  0
 16 36  1  0
 17 37  1  0
 20 38  1  0
M  END
>  <Energy>  (95) 
115.25394122565092

>  <compound_id>  (95) 
34642

>  <target_id>  (95) 
1

>  <reference_id>  (95) 
82

>  <inspiration_ids>  (95) 
[82, 54]

>  <energy_score>  (95) 
43.57230969956359

>  <distance_score>  (95) 
2.557992028498277

>  <path>  (95) 
/opt/xchem-fragalysis-2/maxwin/BulkDock/SCRATCH/511015/C34642-P82/C34642-P82.minimised.mol

>  <scratch_subdir>  (95) 
/opt/xchem-fragalysis-2/maxwin/BulkDock/SCRATCH/511015/C34642-P82

>  <fragmenstein_runtime>  (95) 
2.8748719692230225

>  <fragmenstein_outcome>  (95) 
too moved

>  <fragmenstein_mode>  (95) 
expansion

>  <fragmenstein_error>  (95) 


$$$$
C34642-P54
     RDKit          3D

 38 39  0  0  0  0  0  0  0  0999 V2000
  -10.0962  -22.8707   32.5199 C   0  0  0  0  0  0  0  0  0  0  0  0
   -9.5461  -24.1977   31.9302 C   0  0  0  0  0  0  0  0  0  0  0  0
   -8.4693  -24.5779   32.9542 C   0  0  0  0  0  0  0  0  0  0  0  0
   -8.9382  -23.7943   30.4953 C   0  0  0  0  0  0  0  0  0  0  0  0
   -8.2362  -22.8608   30.4564 O   0  0  0  0  0  0  0  0  0  0  0  0
   -9.4897  -24.6922   29.3433 N   0  0  0  0  0  0  0  0  0  0  0  0
   -9.3646  -24.5629   27.9257 C   0  0  0  0  0  0  0  0  0  0  0  0
  -10.6348  -24.1587   27.1423 C   0  0  0  0  0  0  0  0  0  0  0  0
  -11.3107  -23.0522   27.8710 C   0  0  0  0  0  0  0  0  0  0  0  0
  -10.6528  -21.9263   28.3241 C   0  0  0  0  0  0  0  0  0  0  0  0
  -11.0917  -21.1333   29.3134 N   0  0  0  0  0  0  0  0  0  0  0  0
  -12.2256  -21.5163   29.8815 C   0  0  0  0  0  0  0  0  0  0  0  0
  -12.9936  -22.5325   29.4554 N   0  0  0  0  0  0  0  0  0  0  0  0
  -12.5474  -23.2441   28.4015 C   0  0  0  0  0  0  0  0  0  0  0  0
  -10.6722  -25.2232   31.7856 C   0  0  0  0  0  0  0  0  0  0  0  0
  -11.6353  -24.9420   30.8411 C   0  0  0  0  0  0  0  0  0  0  0  0
  -12.4871  -25.9012   30.3438 C   0  0  0  0  0  0  0  0  0  0  0  0
  -12.5396  -27.0829   31.0057 C   0  0  0  0  0  0  0  0  0  0  0  0
  -13.4022  -27.9848   30.5634 F   0  0  0  0  0  0  0  0  0  0  0  0
  -11.7505  -27.2572   32.1193 C   0  0  0  0  0  0  0  0  0  0  0  0
  -10.8075  -26.3498   32.5168 N   0  0  0  0  0  0  0  0  0  0  0  0
   -9.3389  -22.0769   32.5271 H   0  0  0  0  0  0  0  0  0  0  0  0
  -10.4216  -22.9942   33.5581 H   0  0  0  0  0  0  0  0  0  0  0  0
  -10.9482  -22.4814   31.9647 H   0  0  0  0  0  0  0  0  0  0  0  0
   -7.8339  -25.3852   32.6240 H   0  0  0  0  0  0  0  0  0  0  0  0
   -7.7983  -23.7336   33.1558 H   0  0  0  0  0  0  0  0  0  0  0  0
   -8.9003  -24.8715   33.9146 H   0  0  0  0  0  0  0  0  0  0  0  0
  -10.0003  -25.4595   29.7321 H   0  0  0  0  0  0  0  0  0  0  0  0
   -8.6671  -23.7505   27.8418 H   0  0  0  0  0  0  0  0  0  0  0  0
   -8.9528  -25.4951   27.5336 H   0  0  0  0  0  0  0  0  0  0  0  0
  -11.2941  -25.0312   27.0593 H   0  0  0  0  0  0  0  0  0  0  0  0
  -10.3876  -23.8411   26.1247 H   0  0  0  0  0  0  0  0  0  0  0  0
   -9.6500  -21.6899   27.9950 H   0  0  0  0  0  0  0  0  0  0  0  0
  -12.5671  -20.9594   30.7480 H   0  0  0  0  0  0  0  0  0  0  0  0
  -13.2015  -24.0448   28.0724 H   0  0  0  0  0  0  0  0  0  0  0  0
  -11.6145  -23.9581   30.4272 H   0  0  0  0  0  0  0  0  0  0  0  0
  -13.1666  -25.7198   29.5223 H   0  0  0  0  0  0  0  0  0  0  0  0
  -11.8241  -28.1571   32.7209 H   0  0  0  0  0  0  0  0  0  0  0  0
  1  2  1  0
  2  3  1  0
  2  4  1  0
  4  5  2  0
  4  6  1  0
  6  7  1  0
  7  8  1  0
  8  9  1  0
  9 10  2  0
 10 11  1  0
 11 12  2  0
 12 13  1  0
 13 14  2  0
  2 15  1  0
 15 16  2  0
 16 17  1  0
 17 18  2  0
 18 19  1  0
 18 20  1  0
 20 21  2  0
 14  9  1  0
 21 15  1  0
  1 22  1  0
  1 23  1  0
  1 24  1  0
  3 25  1  0
  3 26  1  0
  3 27  1  0
  6 28  1  0
  7 29  1  0
  7 30  1  0
  8 31  1  0
  8 32  1  0
 10 33  1  0
 12 34  1  0
 14 35  1  0
 16 36  1  0
 17 37  1  0
 20 38  1  0
M  END
>  <Energy>  (96) 
104.57742467541746

>  <compound_id>  (96) 
34642

>  <target_id>  (96) 
1

>  <reference_id>  (96) 
54

>  <inspiration_ids>  (96) 
[82, 54]

>  <energy_score>  (96) 
32.89579314933009

>  <distance_score>  (96) 
2.2038961271260553

>  <path>  (96) 
/opt/xchem-fragalysis-2/maxwin/BulkDock/SCRATCH/511015/C34642-P54/C34642-P54.minimised.mol

>  <scratch_subdir>  (96) 
/opt/xchem-fragalysis-2/maxwin/BulkDock/SCRATCH/511015/C34642-P54

>  <fragmenstein_runtime>  (96) 
4.778374195098877

>  <fragmenstein_outcome>  (96) 
too moved

>  <fragmenstein_mode>  (96) 
expansion

>  <fragmenstein_error>  (96) 


$$$$
C34643-P82
     RDKit          3D

 28 30  0  0  0  0  0  0  0  0999 V2000
   -8.5008  -25.0822   29.1208 O   0  0  0  0  0  0  0  0  0  0  0  0
   -9.5816  -24.9708   29.5993 C   0  0  0  0  0  0  0  0  0  0  0  0
  -10.6897  -24.1811   29.2061 N   0  0  0  0  0  0  0  0  0  0  0  0
  -10.8205  -23.2604   28.2344 C   0  0  0  0  0  0  0  0  0  0  0  0
  -10.4120  -22.0174   28.3549 N   0  0  0  0  0  0  0  0  0  0  0  0
  -11.0494  -21.4309   29.4485 N   0  0  0  0  0  0  0  0  0  0  0  0
  -12.2035  -22.0346   29.6280 C   0  0  0  0  0  0  0  0  0  0  0  0
  -12.8451  -22.2183   30.9407 C   0  0  0  0  0  0  0  0  0  0  0  0
  -12.0676  -22.3861   32.0768 C   0  0  0  0  0  0  0  0  0  0  0  0
  -12.6740  -22.7861   33.2563 C   0  0  0  0  0  0  0  0  0  0  0  0
  -14.0469  -22.9488   33.2899 C   0  0  0  0  0  0  0  0  0  0  0  0
  -14.7587  -22.6119   32.1631 C   0  0  0  0  0  0  0  0  0  0  0  0
  -14.1846  -22.1884   31.0210 N   0  0  0  0  0  0  0  0  0  0  0  0
  -12.4790  -23.0069   28.1419 S   0  0  0  0  0  0  0  0  0  0  0  0
   -9.8038  -25.7312   30.9372 C   0  0  0  0  0  0  0  0  0  0  0  0
  -10.9572  -25.3842   31.5431 C   0  0  0  0  0  0  0  0  0  0  0  0
  -12.0682  -25.5075   30.8060 N   0  0  0  0  0  0  0  0  0  0  0  0
  -11.9880  -26.4355   29.8241 C   0  0  0  0  0  0  0  0  0  0  0  0
  -11.0464  -27.3485   29.7980 N   0  0  0  0  0  0  0  0  0  0  0  0
   -9.9826  -27.0157   30.5463 C   0  0  0  0  0  0  0  0  0  0  0  0
  -11.4750  -24.3982   29.7980 H   0  0  0  0  0  0  0  0  0  0  0  0
  -10.9953  -22.2883   32.0474 H   0  0  0  0  0  0  0  0  0  0  0  0
  -12.0662  -23.0315   34.1192 H   0  0  0  0  0  0  0  0  0  0  0  0
  -14.5592  -23.3390   34.1603 H   0  0  0  0  0  0  0  0  0  0  0  0
  -15.8396  -22.7138   32.1288 H   0  0  0  0  0  0  0  0  0  0  0  0
  -11.0141  -24.9142   32.5111 H   0  0  0  0  0  0  0  0  0  0  0  0
  -12.6441  -26.3599   28.9714 H   0  0  0  0  0  0  0  0  0  0  0  0
   -9.2228  -27.7575   30.7428 H   0  0  0  0  0  0  0  0  0  0  0  0
  1  2  2  0
  2  3  1  0
  3  4  1  0
  4  5  2  0
  5  6  1  0
  6  7  2  0
  7  8  1  0
  8  9  2  0
  9 10  1  0
 10 11  2  0
 11 12  1  0
 12 13  2  0
  7 14  1  0
  2 15  1  0
 15 16  2  0
 16 17  1  0
 17 18  2  0
 18 19  1  0
 19 20  2  0
 14  4  1  0
 20 15  1  0
 13  8  1  0
  3 21  1  0
  9 22  1  0
 10 23  1  0
 11 24  1  0
 12 25  1  0
 16 26  1  0
 18 27  1  0
 20 28  1  0
M  END
>  <Energy>  (97) 
195.66845685136465

>  <compound_id>  (97) 
34643

>  <target_id>  (97) 
1

>  <reference_id>  (97) 
82

>  <inspiration_ids>  (97) 
[82, 54]

>  <energy_score>  (97) 
84.69271650238085

>  <distance_score>  (97) 
2.8900698142198213

>  <path>  (97) 
/opt/xchem-fragalysis-2/maxwin/BulkDock/SCRATCH/511015/C34643-P82/C34643-P82.minimised.mol

>  <scratch_subdir>  (97) 
/opt/xchem-fragalysis-2/maxwin/BulkDock/SCRATCH/511015/C34643-P82

>  <fragmenstein_runtime>  (97) 
6.800784587860107

>  <fragmenstein_outcome>  (97) 
too moved

>  <fragmenstein_mode>  (97) 
expansion

>  <fragmenstein_error>  (97) 


$$$$
C34643-P54
     RDKit          3D

 28 30  0  0  0  0  0  0  0  0999 V2000
  -13.8382  -24.3711   28.9227 O   0  0  0  0  0  0  0  0  0  0  0  0
  -12.7988  -24.8843   28.9641 C   0  0  0  0  0  0  0  0  0  0  0  0
  -11.4609  -24.4513   28.3860 N   0  0  0  0  0  0  0  0  0  0  0  0
  -11.1047  -23.3098   27.7471 C   0  0  0  0  0  0  0  0  0  0  0  0
   -9.8296  -23.0751   27.5435 N   0  0  0  0  0  0  0  0  0  0  0  0
   -9.2888  -22.8620   28.8134 N   0  0  0  0  0  0  0  0  0  0  0  0
  -10.2098  -22.3692   29.6452 C   0  0  0  0  0  0  0  0  0  0  0  0
  -10.1275  -22.3443   31.1107 C   0  0  0  0  0  0  0  0  0  0  0  0
  -10.8399  -21.4786   31.9280 C   0  0  0  0  0  0  0  0  0  0  0  0
  -10.6036  -21.5178   33.3022 C   0  0  0  0  0  0  0  0  0  0  0  0
   -9.6803  -22.4192   33.8202 C   0  0  0  0  0  0  0  0  0  0  0  0
   -9.0362  -23.2693   32.9446 C   0  0  0  0  0  0  0  0  0  0  0  0
   -9.2583  -23.2666   31.6127 N   0  0  0  0  0  0  0  0  0  0  0  0
  -11.6351  -21.9456   28.7203 S   0  0  0  0  0  0  0  0  0  0  0  0
  -12.6230  -26.0961   29.7521 C   0  0  0  0  0  0  0  0  0  0  0  0
  -13.5450  -27.0929   29.7579 C   0  0  0  0  0  0  0  0  0  0  0  0
  -13.5202  -28.0639   30.6872 N   0  0  0  0  0  0  0  0  0  0  0  0
  -12.5824  -27.9842   31.6478 C   0  0  0  0  0  0  0  0  0  0  0  0
  -11.6860  -27.0044   31.7811 N   0  0  0  0  0  0  0  0  0  0  0  0
  -11.7197  -26.0747   30.8125 C   0  0  0  0  0  0  0  0  0  0  0  0
  -10.7407  -25.0981   28.6813 H   0  0  0  0  0  0  0  0  0  0  0  0
  -11.5464  -20.7584   31.5289 H   0  0  0  0  0  0  0  0  0  0  0  0
  -11.1414  -20.8438   33.9667 H   0  0  0  0  0  0  0  0  0  0  0  0
   -9.4812  -22.4541   34.8835 H   0  0  0  0  0  0  0  0  0  0  0  0
   -8.2994  -23.9888   33.2916 H   0  0  0  0  0  0  0  0  0  0  0  0
  -14.3627  -27.1366   29.0451 H   0  0  0  0  0  0  0  0  0  0  0  0
  -12.5687  -28.7815   32.3844 H   0  0  0  0  0  0  0  0  0  0  0  0
  -11.0178  -25.2571   30.9594 H   0  0  0  0  0  0  0  0  0  0  0  0
  1  2  2  0
  2  3  1  0
  3  4  1  0
  4  5  2  0
  5  6  1  0
  6  7  2  0
  7  8  1  0
  8  9  2  0
  9 10  1  0
 10 11  2  0
 11 12  1  0
 12 13  2  0
  7 14  1  0
  2 15  1  0
 15 16  2  0
 16 17  1  0
 17 18  2  0
 18 19  1  0
 19 20  2  0
 14  4  1  0
 20 15  1  0
 13  8  1  0
  3 21  1  0
  9 22  1  0
 10 23  1  0
 11 24  1  0
 12 25  1  0
 16 26  1  0
 18 27  1  0
 20 28  1  0
M  END
>  <Energy>  (98) 
93.349821086765601

>  <compound_id>  (98) 
34643

>  <target_id>  (98) 
1

>  <reference_id>  (98) 
54

>  <inspiration_ids>  (98) 
[82, 54]

>  <energy_score>  (98) 
-8.988851070387597

>  <distance_score>  (98) 
2.3482080339495024

>  <path>  (98) 
/opt/xchem-fragalysis-2/maxwin/BulkDock/SCRATCH/511015/C34643-P54/C34643-P54.minimised.mol

>  <scratch_subdir>  (98) 
/opt/xchem-fragalysis-2/maxwin/BulkDock/SCRATCH/511015/C34643-P54

>  <fragmenstein_runtime>  (98) 
6.295694828033447

>  <fragmenstein_outcome>  (98) 
too moved

>  <fragmenstein_mode>  (98) 
expansion

>  <fragmenstein_error>  (98) 


$$$$
C34644-P82
     RDKit          3D

 33 35  0  0  0  0  0  0  0  0999 V2000
  -13.2668  -25.7411   27.2846 O   0  0  0  0  0  0  0  0  0  0  0  0
  -12.1605  -25.6666   27.6414 C   0  0  0  0  0  0  0  0  0  0  0  0
  -11.3818  -26.5650   28.4434 N   0  0  0  0  0  0  0  0  0  0  0  0
  -11.7359  -27.7204   29.1017 C   0  0  0  0  0  0  0  0  0  0  0  0
  -12.4713  -28.7332   28.2912 C   0  0  0  0  0  0  0  0  0  0  0  0
  -13.1902  -29.7627   28.8784 C   0  0  0  0  0  0  0  0  0  0  0  0
  -13.8715  -30.6981   28.2034 N   0  0  0  0  0  0  0  0  0  0  0  0
  -13.8039  -30.6075   26.8707 C   0  0  0  0  0  0  0  0  0  0  0  0
  -13.1221  -29.6862   26.1811 N   0  0  0  0  0  0  0  0  0  0  0  0
  -12.4726  -28.7657   26.9131 C   0  0  0  0  0  0  0  0  0  0  0  0
  -11.2039  -24.6032   27.4965 N   0  0  0  0  0  0  0  0  0  0  0  0
  -11.3382  -23.3801   27.0044 C   0  0  0  0  0  0  0  0  0  0  0  0
  -12.5214  -22.8924   26.8122 N   0  0  0  0  0  0  0  0  0  0  0  0
  -13.0218  -22.7039   28.1053 N   0  0  0  0  0  0  0  0  0  0  0  0
  -12.1297  -22.7206   29.0731 C   0  0  0  0  0  0  0  0  0  0  0  0
  -12.1638  -23.1380   30.4725 C   0  0  0  0  0  0  0  0  0  0  0  0
  -13.1317  -22.7258   31.3721 C   0  0  0  0  0  0  0  0  0  0  0  0
  -13.0527  -23.1704   32.6887 C   0  0  0  0  0  0  0  0  0  0  0  0
  -12.0277  -24.0290   33.0650 C   0  0  0  0  0  0  0  0  0  0  0  0
  -11.1187  -24.4269   32.1060 C   0  0  0  0  0  0  0  0  0  0  0  0
  -11.1570  -24.0008   30.8250 N   0  0  0  0  0  0  0  0  0  0  0  0
  -10.7130  -22.3696   28.2609 S   0  0  0  0  0  0  0  0  0  0  0  0
  -10.4928  -26.1533   28.6278 H   0  0  0  0  0  0  0  0  0  0  0  0
  -12.3354  -27.2968   29.8773 H   0  0  0  0  0  0  0  0  0  0  0  0
  -10.8887  -27.9573   29.7217 H   0  0  0  0  0  0  0  0  0  0  0  0
  -13.2380  -29.8866   29.9570 H   0  0  0  0  0  0  0  0  0  0  0  0
  -14.3462  -31.3509   26.2966 H   0  0  0  0  0  0  0  0  0  0  0  0
  -11.9340  -28.0363   26.3161 H   0  0  0  0  0  0  0  0  0  0  0  0
  -10.3770  -24.8378   27.9910 H   0  0  0  0  0  0  0  0  0  0  0  0
  -13.9679  -22.1161   31.0566 H   0  0  0  0  0  0  0  0  0  0  0  0
  -13.8178  -22.8887   33.4064 H   0  0  0  0  0  0  0  0  0  0  0  0
  -11.9680  -24.4086   34.0774 H   0  0  0  0  0  0  0  0  0  0  0  0
  -10.3179  -25.1208   32.3477 H   0  0  0  0  0  0  0  0  0  0  0  0
  1  2  2  0
  2  3  1  0
  3  4  1  0
  4  5  1  0
  5  6  2  0
  6  7  1  0
  7  8  2  0
  8  9  1  0
  9 10  2  0
  2 11  1  0
 11 12  1  0
 12 13  2  0
 13 14  1  0
 14 15  2  0
 15 16  1  0
 16 17  2  0
 17 18  1  0
 18 19  2  0
 19 20  1  0
 20 21  2  0
 15 22  1  0
 10  5  1  0
 22 12  1  0
 21 16  1  0
  3 23  1  0
  4 24  1  0
  4 25  1  0
  6 26  1  0
  8 27  1  0
 10 28  1  0
 11 29  1  0
 17 30  1  0
 18 31  1  0
 19 32  1  0
 20 33  1  0
M  END
>  <Energy>  (99) 
48.352728946238365

>  <compound_id>  (99) 
34644

>  <target_id>  (99) 
1

>  <reference_id>  (99) 
82

>  <inspiration_ids>  (99) 
[82, 54]

>  <energy_score>  (99) 
24.636399338339984

>  <distance_score>  (99) 
4.678259314132127

>  <path>  (99) 
/opt/xchem-fragalysis-2/maxwin/BulkDock/SCRATCH/511015/C34644-P82/C34644-P82.minimised.mol

>  <scratch_subdir>  (99) 
/opt/xchem-fragalysis-2/maxwin/BulkDock/SCRATCH/511015/C34644-P82

>  <fragmenstein_runtime>  (99) 
9.148021459579468

>  <fragmenstein_outcome>  (99) 
too moved

>  <fragmenstein_mode>  (99) 
expansion

>  <fragmenstein_error>  (99) 


$$$$
C34644-P54
     RDKit          3D

 33 35  0  0  0  0  0  0  0  0999 V2000
  -11.7919  -26.4629   27.8804 O   0  0  0  0  0  0  0  0  0  0  0  0
  -12.6025  -25.7235   28.1697 C   0  0  0  0  0  0  0  0  0  0  0  0
  -13.9598  -25.9542   28.8802 N   0  0  0  0  0  0  0  0  0  0  0  0
  -14.5180  -27.1450   29.4495 C   0  0  0  0  0  0  0  0  0  0  0  0
  -13.6854  -27.3906   30.6846 C   0  0  0  0  0  0  0  0  0  0  0  0
  -12.3441  -27.6863   30.5738 C   0  0  0  0  0  0  0  0  0  0  0  0
  -11.5117  -27.8238   31.6057 N   0  0  0  0  0  0  0  0  0  0  0  0
  -12.0554  -27.7622   32.8098 C   0  0  0  0  0  0  0  0  0  0  0  0
  -13.3385  -27.5036   33.0579 N   0  0  0  0  0  0  0  0  0  0  0  0
  -14.1278  -27.3032   31.9819 C   0  0  0  0  0  0  0  0  0  0  0  0
  -12.6319  -24.1952   28.0660 N   0  0  0  0  0  0  0  0  0  0  0  0
  -11.6689  -23.3235   27.6883 C   0  0  0  0  0  0  0  0  0  0  0  0
  -11.8270  -22.0392   27.8702 N   0  0  0  0  0  0  0  0  0  0  0  0
  -11.4380  -21.7491   29.1683 N   0  0  0  0  0  0  0  0  0  0  0  0
  -10.5837  -22.6485   29.6429 C   0  0  0  0  0  0  0  0  0  0  0  0
  -10.1284  -22.7366   31.0385 C   0  0  0  0  0  0  0  0  0  0  0  0
   -9.3528  -23.7531   31.5601 C   0  0  0  0  0  0  0  0  0  0  0  0
   -8.9978  -23.7265   32.9134 C   0  0  0  0  0  0  0  0  0  0  0  0
   -9.4423  -22.7012   33.7255 C   0  0  0  0  0  0  0  0  0  0  0  0
  -10.2388  -21.7447   33.1429 C   0  0  0  0  0  0  0  0  0  0  0  0
  -10.5805  -21.7455   31.8350 N   0  0  0  0  0  0  0  0  0  0  0  0
  -10.1271  -23.7684   28.3657 S   0  0  0  0  0  0  0  0  0  0  0  0
  -14.4765  -25.0923   28.9111 H   0  0  0  0  0  0  0  0  0  0  0  0
  -14.4166  -27.9739   28.7434 H   0  0  0  0  0  0  0  0  0  0  0  0
  -15.5704  -26.9711   29.6881 H   0  0  0  0  0  0  0  0  0  0  0  0
  -11.8717  -27.8750   29.6159 H   0  0  0  0  0  0  0  0  0  0  0  0
  -11.4036  -27.9585   33.6521 H   0  0  0  0  0  0  0  0  0  0  0  0
  -15.1645  -27.0722   32.2144 H   0  0  0  0  0  0  0  0  0  0  0  0
  -13.4684  -23.8467   28.4857 H   0  0  0  0  0  0  0  0  0  0  0  0
   -9.0020  -24.5694   30.9416 H   0  0  0  0  0  0  0  0  0  0  0  0
   -8.3607  -24.5105   33.3163 H   0  0  0  0  0  0  0  0  0  0  0  0
   -9.1886  -22.6476   34.7745 H   0  0  0  0  0  0  0  0  0  0  0  0
  -10.6465  -20.9191   33.7216 H   0  0  0  0  0  0  0  0  0  0  0  0
  1  2  2  0
  2  3  1  0
  3  4  1  0
  4  5  1  0
  5  6  2  0
  6  7  1  0
  7  8  2  0
  8  9  1  0
  9 10  2  0
  2 11  1  0
 11 12  1  0
 12 13  2  0
 13 14  1  0
 14 15  2  0
 15 16  1  0
 16 17  2  0
 17 18  1  0
 18 19  2  0
 19 20  1  0
 20 21  2  0
 15 22  1  0
 10  5  1  0
 22 12  1  0
 21 16  1  0
  3 23  1  0
  4 24  1  0
  4 25  1  0
  6 26  1  0
  8 27  1  0
 10 28  1  0
 11 29  1  0
 17 30  1  0
 18 31  1  0
 19 32  1  0
 20 33  1  0
M  END
>  <Energy>  (100) 
18.600490640966928

>  <compound_id>  (100) 
34644

>  <target_id>  (100) 
1

>  <reference_id>  (100) 
54

>  <inspiration_ids>  (100) 
[82, 54]

>  <energy_score>  (100) 
-35.608043423739815

>  <distance_score>  (100) 
3.0212438263013723

>  <path>  (100) 
/opt/xchem-fragalysis-2/maxwin/BulkDock/SCRATCH/511015/C34644-P54/C34644-P54.minimised.mol

>  <scratch_subdir>  (100) 
/opt/xchem-fragalysis-2/maxwin/BulkDock/SCRATCH/511015/C34644-P54

>  <fragmenstein_runtime>  (100) 
4.400911808013916

>  <fragmenstein_outcome>  (100) 
too moved

>  <fragmenstein_mode>  (100) 
expansion

>  <fragmenstein_error>  (100) 


$$$$
C34645-P82
     RDKit          3D

 31 33  0  0  0  0  0  0  0  0999 V2000
  -12.5006  -24.4820   29.2855 O   0  0  0  0  0  0  0  0  0  0  0  0
  -12.3100  -23.4149   28.7842 C   0  0  0  0  0  0  0  0  0  0  0  0
  -12.0105  -22.2724   29.7364 C   0  0  0  0  0  0  0  0  0  0  0  0
  -12.3668  -22.6633   31.1517 C   0  0  0  0  0  0  0  0  0  0  0  0
  -11.5754  -23.4884   31.9317 C   0  0  0  0  0  0  0  0  0  0  0  0
  -11.9494  -24.0358   33.0967 N   0  0  0  0  0  0  0  0  0  0  0  0
  -13.2050  -23.7605   33.4633 C   0  0  0  0  0  0  0  0  0  0  0  0
  -14.0523  -22.9260   32.8488 N   0  0  0  0  0  0  0  0  0  0  0  0
  -13.6286  -22.4553   31.6683 C   0  0  0  0  0  0  0  0  0  0  0  0
  -12.3310  -23.0095   27.4096 N   0  0  0  0  0  0  0  0  0  0  0  0
  -12.6627  -23.7017   26.2769 C   0  0  0  0  0  0  0  0  0  0  0  0
  -13.6333  -24.5924   26.1558 N   0  0  0  0  0  0  0  0  0  0  0  0
  -13.1338  -25.8821   26.3476 N   0  0  0  0  0  0  0  0  0  0  0  0
  -11.8234  -25.7969   26.5295 C   0  0  0  0  0  0  0  0  0  0  0  0
  -11.1098  -26.2338   27.7317 C   0  0  0  0  0  0  0  0  0  0  0  0
  -10.1206  -25.4525   28.3408 C   0  0  0  0  0  0  0  0  0  0  0  0
   -9.8026  -25.6464   29.6777 C   0  0  0  0  0  0  0  0  0  0  0  0
  -10.4546  -26.6207   30.3828 C   0  0  0  0  0  0  0  0  0  0  0  0
  -11.3799  -27.3622   29.6821 C   0  0  0  0  0  0  0  0  0  0  0  0
  -11.7162  -27.2324   28.3835 N   0  0  0  0  0  0  0  0  0  0  0  0
  -11.2702  -24.4422   25.5921 S   0  0  0  0  0  0  0  0  0  0  0  0
  -10.9659  -22.0056   29.6319 H   0  0  0  0  0  0  0  0  0  0  0  0
  -12.5523  -21.3841   29.4292 H   0  0  0  0  0  0  0  0  0  0  0  0
  -10.6005  -23.8224   31.6112 H   0  0  0  0  0  0  0  0  0  0  0  0
  -13.5916  -24.2665   34.3341 H   0  0  0  0  0  0  0  0  0  0  0  0
  -14.3998  -21.9359   31.1132 H   0  0  0  0  0  0  0  0  0  0  0  0
  -12.0405  -22.0435   27.3458 H   0  0  0  0  0  0  0  0  0  0  0  0
   -9.7388  -24.5710   27.8547 H   0  0  0  0  0  0  0  0  0  0  0  0
   -9.0920  -25.0210   30.1910 H   0  0  0  0  0  0  0  0  0  0  0  0
  -10.2483  -26.8116   31.4285 H   0  0  0  0  0  0  0  0  0  0  0  0
  -11.8766  -28.1971   30.1464 H   0  0  0  0  0  0  0  0  0  0  0  0
  1  2  2  0
  2  3  1  0
  3  4  1  0
  4  5  2  0
  5  6  1  0
  6  7  2  0
  7  8  1  0
  8  9  2  0
  2 10  1  0
 10 11  1  0
 11 12  2  0
 12 13  1  0
 13 14  2  0
 14 15  1  0
 15 16  2  0
 16 17  1  0
 17 18  2  0
 18 19  1  0
 19 20  2  0
 14 21  1  0
  9  4  1  0
 21 11  1  0
 20 15  1  0
  3 22  1  0
  3 23  1  0
  5 24  1  0
  7 25  1  0
  9 26  1  0
 10 27  1  0
 16 28  1  0
 17 29  1  0
 18 30  1  0
 19 31  1  0
M  END
>  <Energy>  (101) 
115.74228599955411

>  <compound_id>  (101) 
34645

>  <target_id>  (101) 
1

>  <reference_id>  (101) 
82

>  <inspiration_ids>  (101) 
[82, 54]

>  <energy_score>  (101) 
42.086369858061175

>  <distance_score>  (101) 
3.7479113725230633

>  <path>  (101) 
/opt/xchem-fragalysis-2/maxwin/BulkDock/SCRATCH/511015/C34645-P82/C34645-P82.minimised.mol

>  <scratch_subdir>  (101) 
/opt/xchem-fragalysis-2/maxwin/BulkDock/SCRATCH/511015/C34645-P82

>  <fragmenstein_runtime>  (101) 
5.2308571338653564

>  <fragmenstein_outcome>  (101) 
too moved

>  <fragmenstein_mode>  (101) 
expansion

>  <fragmenstein_error>  (101) 


$$$$
C34645-P54
     RDKit          3D

 31 33  0  0  0  0  0  0  0  0999 V2000
  -10.8345  -26.8486   26.6407 O   0  0  0  0  0  0  0  0  0  0  0  0
  -11.7240  -26.4480   27.2788 C   0  0  0  0  0  0  0  0  0  0  0  0
  -12.8916  -27.2928   27.7817 C   0  0  0  0  0  0  0  0  0  0  0  0
  -12.8091  -27.3028   29.2986 C   0  0  0  0  0  0  0  0  0  0  0  0
  -11.7273  -27.8507   29.9637 C   0  0  0  0  0  0  0  0  0  0  0  0
  -11.5749  -27.8347   31.2927 N   0  0  0  0  0  0  0  0  0  0  0  0
  -12.5215  -27.2050   31.9689 C   0  0  0  0  0  0  0  0  0  0  0  0
  -13.5748  -26.5660   31.4357 N   0  0  0  0  0  0  0  0  0  0  0  0
  -13.7220  -26.6701   30.1023 C   0  0  0  0  0  0  0  0  0  0  0  0
  -11.9680  -25.0489   27.8925 N   0  0  0  0  0  0  0  0  0  0  0  0
  -11.1826  -23.9654   27.9255 C   0  0  0  0  0  0  0  0  0  0  0  0
   -9.8881  -23.9726   27.7919 N   0  0  0  0  0  0  0  0  0  0  0  0
   -9.3250  -23.5174   28.9749 N   0  0  0  0  0  0  0  0  0  0  0  0
  -10.2260  -23.0011   29.8013 C   0  0  0  0  0  0  0  0  0  0  0  0
  -10.0312  -22.7244   31.2296 C   0  0  0  0  0  0  0  0  0  0  0  0
  -10.7410  -21.7730   31.9534 C   0  0  0  0  0  0  0  0  0  0  0  0
  -10.4735  -21.6324   33.3145 C   0  0  0  0  0  0  0  0  0  0  0  0
   -9.5130  -22.4390   33.9117 C   0  0  0  0  0  0  0  0  0  0  0  0
   -8.8487  -23.3561   33.1242 C   0  0  0  0  0  0  0  0  0  0  0  0
   -9.1024  -23.5234   31.8117 N   0  0  0  0  0  0  0  0  0  0  0  0
  -11.7655  -22.8130   29.0301 S   0  0  0  0  0  0  0  0  0  0  0  0
  -13.8389  -26.8776   27.4216 H   0  0  0  0  0  0  0  0  0  0  0  0
  -12.7993  -28.3134   27.3954 H   0  0  0  0  0  0  0  0  0  0  0  0
  -10.9273  -28.3502   29.4198 H   0  0  0  0  0  0  0  0  0  0  0  0
  -12.4367  -27.2321   33.0471 H   0  0  0  0  0  0  0  0  0  0  0  0
  -14.6185  -26.2028   29.7030 H   0  0  0  0  0  0  0  0  0  0  0  0
  -12.8798  -25.0220   28.3166 H   0  0  0  0  0  0  0  0  0  0  0  0
  -11.4905  -21.1386   31.4935 H   0  0  0  0  0  0  0  0  0  0  0  0
  -11.0208  -20.9018   33.9067 H   0  0  0  0  0  0  0  0  0  0  0  0
   -9.2941  -22.3491   34.9667 H   0  0  0  0  0  0  0  0  0  0  0  0
   -8.0706  -23.9979   33.5266 H   0  0  0  0  0  0  0  0  0  0  0  0
  1  2  2  0
  2  3  1  0
  3  4  1  0
  4  5  2  0
  5  6  1  0
  6  7  2  0
  7  8  1  0
  8  9  2  0
  2 10  1  0
 10 11  1  0
 11 12  2  0
 12 13  1  0
 13 14  2  0
 14 15  1  0
 15 16  2  0
 16 17  1  0
 17 18  2  0
 18 19  1  0
 19 20  2  0
 14 21  1  0
  9  4  1  0
 21 11  1  0
 20 15  1  0
  3 22  1  0
  3 23  1  0
  5 24  1  0
  7 25  1  0
  9 26  1  0
 10 27  1  0
 16 28  1  0
 17 29  1  0
 18 30  1  0
 19 31  1  0
M  END
>  <Energy>  (102) 
61.61682350740746

>  <compound_id>  (102) 
34645

>  <target_id>  (102) 
1

>  <reference_id>  (102) 
54

>  <inspiration_ids>  (102) 
[82, 54]

>  <energy_score>  (102) 
-46.50421704292948

>  <distance_score>  (102) 
2.9579528680015024

>  <path>  (102) 
/opt/xchem-fragalysis-2/maxwin/BulkDock/SCRATCH/511015/C34645-P54/C34645-P54.minimised.mol

>  <scratch_subdir>  (102) 
/opt/xchem-fragalysis-2/maxwin/BulkDock/SCRATCH/511015/C34645-P54

>  <fragmenstein_runtime>  (102) 
3.4462223052978516

>  <fragmenstein_outcome>  (102) 
too moved

>  <fragmenstein_mode>  (102) 
expansion

>  <fragmenstein_error>  (102) 


$$$$
C34646-P82
     RDKit          3D

 30 31  0  0  0  0  0  0  0  0999 V2000
  -13.9060  -28.9746   25.3509 N   0  0  0  0  0  0  0  0  0  0  0  0
  -13.0068  -28.5405   25.9430 C   0  0  0  0  0  0  0  0  0  0  0  0
  -11.8484  -28.0703   26.7273 C   0  0  0  0  0  0  0  0  0  0  0  0
  -12.1903  -27.9729   28.2767 C   0  0  0  0  0  0  0  0  0  0  0  0
  -11.6337  -26.8409   29.2905 C   0  0  0  0  0  0  0  0  0  0  0  0
  -10.5880  -26.8996   30.2056 C   0  0  0  0  0  0  0  0  0  0  0  0
  -10.3772  -25.9045   31.1958 C   0  0  0  0  0  0  0  0  0  0  0  0
  -11.2417  -24.8533   31.3325 C   0  0  0  0  0  0  0  0  0  0  0  0
  -12.2221  -24.8122   30.3870 C   0  0  0  0  0  0  0  0  0  0  0  0
  -12.3735  -25.7208   29.3633 N   0  0  0  0  0  0  0  0  0  0  0  0
  -11.5124  -26.7188   26.5771 N   0  0  0  0  0  0  0  0  0  0  0  0
  -12.3879  -25.5082   26.3264 C   0  0  0  0  0  0  0  0  0  0  0  0
  -13.5256  -25.4327   26.1241 O   0  0  0  0  0  0  0  0  0  0  0  0
  -11.5849  -24.2806   26.4791 C   0  0  0  0  0  0  0  0  0  0  0  0
  -12.3201  -23.1429   26.5019 C   0  0  0  0  0  0  0  0  0  0  0  0
  -12.2062  -22.1752   27.4436 N   0  0  0  0  0  0  0  0  0  0  0  0
  -11.3274  -22.3390   28.4006 C   0  0  0  0  0  0  0  0  0  0  0  0
  -10.4939  -23.3515   28.4268 N   0  0  0  0  0  0  0  0  0  0  0  0
  -10.6327  -24.2865   27.4785 C   0  0  0  0  0  0  0  0  0  0  0  0
  -11.0031  -28.6962   26.4576 H   0  0  0  0  0  0  0  0  0  0  0  0
  -12.2920  -28.9465   28.7499 H   0  0  0  0  0  0  0  0  0  0  0  0
  -13.2367  -27.6887   28.1727 H   0  0  0  0  0  0  0  0  0  0  0  0
   -9.9011  -27.7167   30.2983 H   0  0  0  0  0  0  0  0  0  0  0  0
   -9.5515  -26.0161   31.8932 H   0  0  0  0  0  0  0  0  0  0  0  0
  -11.1569  -24.1115   32.1122 H   0  0  0  0  0  0  0  0  0  0  0  0
  -12.9624  -24.0195   30.4012 H   0  0  0  0  0  0  0  0  0  0  0  0
  -10.5525  -26.4310   26.6343 H   0  0  0  0  0  0  0  0  0  0  0  0
  -13.1599  -23.0593   25.8198 H   0  0  0  0  0  0  0  0  0  0  0  0
  -11.2800  -21.6011   29.1862 H   0  0  0  0  0  0  0  0  0  0  0  0
  -10.0013  -25.1279   27.7223 H   0  0  0  0  0  0  0  0  0  0  0  0
  1  2  3  0
  2  3  1  0
  3  4  1  0
  4  5  1  0
  5  6  2  0
  6  7  1  0
  7  8  2  0
  8  9  1  0
  9 10  2  0
  3 11  1  0
 11 12  1  0
 12 13  2  0
 12 14  1  0
 14 15  2  0
 15 16  1  0
 16 17  2  0
 17 18  1  0
 18 19  2  0
 10  5  1  0
 19 14  1  0
  3 20  1  0
  4 21  1  0
  4 22  1  0
  6 23  1  0
  7 24  1  0
  8 25  1  0
  9 26  1  0
 11 27  1  0
 15 28  1  0
 17 29  1  0
 19 30  1  0
M  END
>  <Energy>  (103) 
109.60561760833022

>  <compound_id>  (103) 
34646

>  <target_id>  (103) 
1

>  <reference_id>  (103) 
82

>  <inspiration_ids>  (103) 
[82, 54]

>  <energy_score>  (103) 
74.75089397972931

>  <distance_score>  (103) 
2.6250666877327045

>  <path>  (103) 
/opt/xchem-fragalysis-2/maxwin/BulkDock/SCRATCH/511015/C34646-P82/C34646-P82.minimised.mol

>  <scratch_subdir>  (103) 
/opt/xchem-fragalysis-2/maxwin/BulkDock/SCRATCH/511015/C34646-P82

>  <fragmenstein_runtime>  (103) 
2.850877523422241

>  <fragmenstein_outcome>  (103) 
too moved

>  <fragmenstein_mode>  (103) 
expansion

>  <fragmenstein_error>  (103) 


$$$$
C34646-P54
     RDKit          3D

 30 31  0  0  0  0  0  0  0  0999 V2000
  -15.5053  -26.9361   25.8313 N   0  0  0  0  0  0  0  0  0  0  0  0
  -14.9497  -26.5678   26.7815 C   0  0  0  0  0  0  0  0  0  0  0  0
  -14.2700  -26.1262   28.0096 C   0  0  0  0  0  0  0  0  0  0  0  0
  -13.6225  -27.3265   28.7316 C   0  0  0  0  0  0  0  0  0  0  0  0
  -12.9585  -27.0337   30.0676 C   0  0  0  0  0  0  0  0  0  0  0  0
  -11.9520  -26.0945   30.2179 C   0  0  0  0  0  0  0  0  0  0  0  0
  -11.2750  -25.9874   31.4119 C   0  0  0  0  0  0  0  0  0  0  0  0
  -11.5744  -26.8860   32.4231 C   0  0  0  0  0  0  0  0  0  0  0  0
  -12.6119  -27.7621   32.2418 C   0  0  0  0  0  0  0  0  0  0  0  0
  -13.3185  -27.8254   31.0992 N   0  0  0  0  0  0  0  0  0  0  0  0
  -13.2660  -25.1116   27.7584 N   0  0  0  0  0  0  0  0  0  0  0  0
  -12.0159  -25.1400   26.8506 C   0  0  0  0  0  0  0  0  0  0  0  0
  -11.6426  -25.9535   26.1061 O   0  0  0  0  0  0  0  0  0  0  0  0
  -11.2039  -23.9349   27.1319 C   0  0  0  0  0  0  0  0  0  0  0  0
  -11.7848  -22.6983   27.2392 C   0  0  0  0  0  0  0  0  0  0  0  0
  -11.4881  -21.8360   28.2346 N   0  0  0  0  0  0  0  0  0  0  0  0
  -10.5140  -22.2121   29.0756 C   0  0  0  0  0  0  0  0  0  0  0  0
   -9.7962  -23.3412   28.9847 N   0  0  0  0  0  0  0  0  0  0  0  0
  -10.1414  -24.1716   27.9804 C   0  0  0  0  0  0  0  0  0  0  0  0
  -15.0053  -25.6609   28.6770 H   0  0  0  0  0  0  0  0  0  0  0  0
  -14.3907  -28.0955   28.8933 H   0  0  0  0  0  0  0  0  0  0  0  0
  -12.8639  -27.7932   28.0877 H   0  0  0  0  0  0  0  0  0  0  0  0
  -11.6233  -25.4729   29.4165 H   0  0  0  0  0  0  0  0  0  0  0  0
  -10.4600  -25.2732   31.5183 H   0  0  0  0  0  0  0  0  0  0  0  0
  -10.9758  -26.9381   33.3204 H   0  0  0  0  0  0  0  0  0  0  0  0
  -12.8907  -28.4838   33.0041 H   0  0  0  0  0  0  0  0  0  0  0  0
  -13.2419  -24.2815   28.3433 H   0  0  0  0  0  0  0  0  0  0  0  0
  -12.6070  -22.4138   26.5899 H   0  0  0  0  0  0  0  0  0  0  0  0
  -10.3027  -21.5468   29.9036 H   0  0  0  0  0  0  0  0  0  0  0  0
   -9.6138  -25.1223   27.9718 H   0  0  0  0  0  0  0  0  0  0  0  0
  1  2  3  0
  2  3  1  0
  3  4  1  0
  4  5  1  0
  5  6  2  0
  6  7  1  0
  7  8  2  0
  8  9  1  0
  9 10  2  0
  3 11  1  0
 11 12  1  0
 12 13  2  0
 12 14  1  0
 14 15  2  0
 15 16  1  0
 16 17  2  0
 17 18  1  0
 18 19  2  0
 10  5  1  0
 19 14  1  0
  3 20  1  0
  4 21  1  0
  4 22  1  0
  6 23  1  0
  7 24  1  0
  8 25  1  0
  9 26  1  0
 11 27  1  0
 15 28  1  0
 17 29  1  0
 19 30  1  0
M  END
>  <Energy>  (104) 
60.672540434137247

>  <compound_id>  (104) 
34646

>  <target_id>  (104) 
1

>  <reference_id>  (104) 
54

>  <inspiration_ids>  (104) 
[82, 54]

>  <energy_score>  (104) 
25.817816805536154

>  <distance_score>  (104) 
2.195774884354567

>  <path>  (104) 
/opt/xchem-fragalysis-2/maxwin/BulkDock/SCRATCH/511015/C34646-P54/C34646-P54.minimised.mol

>  <scratch_subdir>  (104) 
/opt/xchem-fragalysis-2/maxwin/BulkDock/SCRATCH/511015/C34646-P54

>  <fragmenstein_runtime>  (104) 
2.108957290649414

>  <fragmenstein_outcome>  (104) 
too moved

>  <fragmenstein_mode>  (104) 
expansion

>  <fragmenstein_error>  (104) 


$$$$
C34647-P82
     RDKit          3D

 31 34  0  0  0  0  0  0  0  0999 V2000
  -17.9664  -27.7992   34.9602 C   0  0  0  0  0  0  0  0  0  0  0  0
  -16.8165  -27.5862   35.6146 N   0  0  0  0  0  0  0  0  0  0  0  0
  -16.1959  -26.4255   35.3263 C   0  0  0  0  0  0  0  0  0  0  0  0
  -16.6875  -25.4985   34.4258 C   0  0  0  0  0  0  0  0  0  0  0  0
  -15.8645  -24.4349   33.9332 C   0  0  0  0  0  0  0  0  0  0  0  0
  -16.2819  -23.3492   33.2652 N   0  0  0  0  0  0  0  0  0  0  0  0
  -15.1373  -22.9901   32.5286 O   0  0  0  0  0  0  0  0  0  0  0  0
  -14.1601  -23.8910   32.8737 C   0  0  0  0  0  0  0  0  0  0  0  0
  -12.8369  -23.6544   32.3431 C   0  0  0  0  0  0  0  0  0  0  0  0
  -12.5958  -23.5572   30.9875 C   0  0  0  0  0  0  0  0  0  0  0  0
  -11.9538  -22.4193   30.5904 C   0  0  0  0  0  0  0  0  0  0  0  0
  -11.6947  -21.4272   31.4706 N   0  0  0  0  0  0  0  0  0  0  0  0
  -11.9476  -21.6520   32.7845 C   0  0  0  0  0  0  0  0  0  0  0  0
  -12.6842  -20.6088   33.6130 C   0  0  0  0  0  0  0  0  0  0  0  0
  -11.9871  -19.3327   34.0271 C   0  0  0  0  0  0  0  0  0  0  0  0
  -12.4160  -20.2888   35.0331 C   0  0  0  0  0  0  0  0  0  0  0  0
  -12.0636  -22.9383   33.2139 C   0  0  0  0  0  0  0  0  0  0  0  0
  -14.5223  -24.6821   33.8478 N   0  0  0  0  0  0  0  0  0  0  0  0
  -17.8737  -25.8305   33.8145 C   0  0  0  0  0  0  0  0  0  0  0  0
  -18.5422  -26.9732   34.0708 N   0  0  0  0  0  0  0  0  0  0  0  0
  -18.4869  -28.7265   35.1740 H   0  0  0  0  0  0  0  0  0  0  0  0
  -15.2335  -26.2939   35.8173 H   0  0  0  0  0  0  0  0  0  0  0  0
  -13.0256  -24.2474   30.2790 H   0  0  0  0  0  0  0  0  0  0  0  0
  -11.7384  -22.2087   29.5483 H   0  0  0  0  0  0  0  0  0  0  0  0
  -13.7598  -20.6154   33.4331 H   0  0  0  0  0  0  0  0  0  0  0  0
  -10.9375  -19.2416   33.8051 H   0  0  0  0  0  0  0  0  0  0  0  0
  -12.5408  -18.4025   34.0668 H   0  0  0  0  0  0  0  0  0  0  0  0
  -13.1966  -19.8923   35.6659 H   0  0  0  0  0  0  0  0  0  0  0  0
  -11.7070  -20.9407   35.4689 H   0  0  0  0  0  0  0  0  0  0  0  0
  -12.1850  -23.1335   34.2712 H   0  0  0  0  0  0  0  0  0  0  0  0
  -18.3093  -25.2092   33.0363 H   0  0  0  0  0  0  0  0  0  0  0  0
  1  2  2  0
  2  3  1  0
  3  4  2  0
  4  5  1  0
  5  6  2  0
  6  7  1  0
  7  8  1  0
  8  9  1  0
  9 10  2  0
 10 11  1  0
 11 12  2  0
 12 13  1  0
 13 14  1  0
 14 15  1  0
 15 16  1  0
 13 17  2  0
  8 18  2  0
  4 19  1  0
 19 20  2  0
 20  1  1  0
 18  5  1  0
 17  9  1  0
 16 14  1  0
  1 21  1  0
  3 22  1  0
 10 23  1  0
 11 24  1  0
 14 25  1  0
 15 26  1  0
 15 27  1  0
 16 28  1  0
 16 29  1  0
 17 30  1  0
 19 31  1  0
M  END
>  <Energy>  (105) 
100.98513629013456

>  <compound_id>  (105) 
34647

>  <target_id>  (105) 
1

>  <reference_id>  (105) 
82

>  <inspiration_ids>  (105) 
[82, 54]

>  <energy_score>  (105) 
45.25578623471232

>  <distance_score>  (105) 
5.075613270573989

>  <path>  (105) 
/opt/xchem-fragalysis-2/maxwin/BulkDock/SCRATCH/511015/C34647-P82/C34647-P82.minimised.mol

>  <scratch_subdir>  (105) 
/opt/xchem-fragalysis-2/maxwin/BulkDock/SCRATCH/511015/C34647-P82

>  <fragmenstein_runtime>  (105) 
3.9682865142822266

>  <fragmenstein_outcome>  (105) 
too moved

>  <fragmenstein_mode>  (105) 
expansion

>  <fragmenstein_error>  (105) 


$$$$
C34647-P54
     RDKit          3D

 31 34  0  0  0  0  0  0  0  0999 V2000
  -12.7598  -27.4261   32.2437 C   0  0  0  0  0  0  0  0  0  0  0  0
  -11.7016  -28.0196   31.7054 N   0  0  0  0  0  0  0  0  0  0  0  0
  -11.5646  -27.8529   30.3770 C   0  0  0  0  0  0  0  0  0  0  0  0
  -12.4066  -27.1040   29.5935 C   0  0  0  0  0  0  0  0  0  0  0  0
  -12.1029  -26.7520   28.2209 C   0  0  0  0  0  0  0  0  0  0  0  0
  -10.9465  -27.0822   27.6132 N   0  0  0  0  0  0  0  0  0  0  0  0
  -10.5301  -25.8413   27.0820 O   0  0  0  0  0  0  0  0  0  0  0  0
  -11.5453  -24.9654   27.3781 C   0  0  0  0  0  0  0  0  0  0  0  0
  -11.1271  -23.7257   27.9930 C   0  0  0  0  0  0  0  0  0  0  0  0
  -11.3076  -22.5002   27.3957 C   0  0  0  0  0  0  0  0  0  0  0  0
  -11.1261  -21.3917   28.1982 C   0  0  0  0  0  0  0  0  0  0  0  0
  -10.8554  -21.4333   29.5241 N   0  0  0  0  0  0  0  0  0  0  0  0
  -10.6862  -22.6367   30.1075 C   0  0  0  0  0  0  0  0  0  0  0  0
  -10.5876  -22.7979   31.5948 C   0  0  0  0  0  0  0  0  0  0  0  0
  -10.3099  -21.6880   32.5621 C   0  0  0  0  0  0  0  0  0  0  0  0
   -9.2634  -22.7391   32.3017 C   0  0  0  0  0  0  0  0  0  0  0  0
  -10.7570  -23.7888   29.3428 C   0  0  0  0  0  0  0  0  0  0  0  0
  -12.6439  -25.5907   27.7380 N   0  0  0  0  0  0  0  0  0  0  0  0
  -13.4530  -26.5278   30.2623 C   0  0  0  0  0  0  0  0  0  0  0  0
  -13.6332  -26.6429   31.5928 N   0  0  0  0  0  0  0  0  0  0  0  0
  -12.9349  -27.6004   33.2990 H   0  0  0  0  0  0  0  0  0  0  0  0
  -10.7084  -28.3570   29.9393 H   0  0  0  0  0  0  0  0  0  0  0  0
  -11.6236  -22.3877   26.3646 H   0  0  0  0  0  0  0  0  0  0  0  0
  -11.2288  -20.3919   27.7912 H   0  0  0  0  0  0  0  0  0  0  0  0
  -11.2898  -23.5267   31.9616 H   0  0  0  0  0  0  0  0  0  0  0  0
  -10.1921  -20.6869   32.1754 H   0  0  0  0  0  0  0  0  0  0  0  0
  -10.8304  -21.7093   33.5143 H   0  0  0  0  0  0  0  0  0  0  0  0
   -8.3855  -22.4552   31.7392 H   0  0  0  0  0  0  0  0  0  0  0  0
   -9.0674  -23.4637   33.0834 H   0  0  0  0  0  0  0  0  0  0  0  0
  -10.6334  -24.7441   29.8443 H   0  0  0  0  0  0  0  0  0  0  0  0
  -14.1885  -25.9137   29.7461 H   0  0  0  0  0  0  0  0  0  0  0  0
  1  2  2  0
  2  3  1  0
  3  4  2  0
  4  5  1  0
  5  6  2  0
  6  7  1  0
  7  8  1  0
  8  9  1  0
  9 10  2  0
 10 11  1  0
 11 12  2  0
 12 13  1  0
 13 14  1  0
 14 15  1  0
 15 16  1  0
 13 17  2  0
  8 18  2  0
  4 19  1  0
 19 20  2  0
 20  1  1  0
 18  5  1  0
 17  9  1  0
 16 14  1  0
  1 21  1  0
  3 22  1  0
 10 23  1  0
 11 24  1  0
 14 25  1  0
 15 26  1  0
 15 27  1  0
 16 28  1  0
 16 29  1  0
 17 30  1  0
 19 31  1  0
M  END
>  <Energy>  (106) 
75.154220154645543

>  <compound_id>  (106) 
34647

>  <target_id>  (106) 
1

>  <reference_id>  (106) 
54

>  <inspiration_ids>  (106) 
[82, 54]

>  <energy_score>  (106) 
18.122023790218798

>  <distance_score>  (106) 
2.3179355506595685

>  <path>  (106) 
/opt/xchem-fragalysis-2/maxwin/BulkDock/SCRATCH/511015/C34647-P54/C34647-P54.minimised.mol

>  <scratch_subdir>  (106) 
/opt/xchem-fragalysis-2/maxwin/BulkDock/SCRATCH/511015/C34647-P54

>  <fragmenstein_runtime>  (106) 
3.535498857498169

>  <fragmenstein_outcome>  (106) 
too moved

>  <fragmenstein_mode>  (106) 
expansion

>  <fragmenstein_error>  (106) 


$$$$
C34648-P82
     RDKit          3D

 43 45  0  0  0  0  0  0  0  0999 V2000
  -10.7993  -25.5282   33.1812 C   0  0  0  0  0  0  0  0  0  0  0  0
  -11.3620  -24.9535   31.9285 N   0  0  0  0  0  0  0  0  0  0  0  0
  -10.0840  -25.5434   31.3483 C   0  0  0  0  0  0  0  0  0  0  0  0
  -10.3017  -26.8839   30.6129 C   0  0  0  0  0  0  0  0  0  0  0  0
  -10.9297  -26.6875   29.3250 N   0  0  0  0  0  0  0  0  0  0  0  0
  -11.8963  -27.4809   28.6142 C   0  0  0  0  0  0  0  0  0  0  0  0
  -12.4903  -28.4685   28.9399 O   0  0  0  0  0  0  0  0  0  0  0  0
  -12.1499  -26.8565   27.2661 C   0  0  0  0  0  0  0  0  0  0  0  0
  -13.2390  -27.1627   26.4804 C   0  0  0  0  0  0  0  0  0  0  0  0
  -13.7467  -26.1222   25.7067 C   0  0  0  0  0  0  0  0  0  0  0  0
  -13.2774  -24.8234   25.9371 C   0  0  0  0  0  0  0  0  0  0  0  0
  -12.2308  -24.6620   26.8259 C   0  0  0  0  0  0  0  0  0  0  0  0
  -12.2115  -23.6327   27.9036 C   0  0  0  0  0  0  0  0  0  0  0  0
  -10.8688  -23.2112   28.3806 C   0  0  0  0  0  0  0  0  0  0  0  0
  -11.7956  -22.2160   27.8034 C   0  0  0  0  0  0  0  0  0  0  0  0
  -11.4725  -25.7085   27.1421 N   0  0  0  0  0  0  0  0  0  0  0  0
  -11.7491  -23.6063   32.1382 C   0  0  0  0  0  0  0  0  0  0  0  0
  -11.1330  -22.5841   31.9951 O   0  0  0  0  0  0  0  0  0  0  0  0
  -13.1540  -23.3908   32.4910 C   0  0  0  0  0  0  0  0  0  0  0  0
  -13.8583  -23.9747   33.5025 C   0  0  0  0  0  0  0  0  0  0  0  0
  -15.1456  -23.6803   33.7896 N   0  0  0  0  0  0  0  0  0  0  0  0
  -15.7185  -22.7563   33.0001 C   0  0  0  0  0  0  0  0  0  0  0  0
  -15.1241  -22.0732   32.0086 N   0  0  0  0  0  0  0  0  0  0  0  0
  -13.8528  -22.4540   31.7637 C   0  0  0  0  0  0  0  0  0  0  0  0
   -9.8725  -25.0504   33.5193 H   0  0  0  0  0  0  0  0  0  0  0  0
  -11.4791  -25.2819   33.9979 H   0  0  0  0  0  0  0  0  0  0  0  0
  -10.7439  -26.6166   33.1785 H   0  0  0  0  0  0  0  0  0  0  0  0
   -9.1334  -25.5288   31.9107 H   0  0  0  0  0  0  0  0  0  0  0  0
   -9.8342  -24.8203   30.5645 H   0  0  0  0  0  0  0  0  0  0  0  0
  -10.8018  -27.6509   31.1904 H   0  0  0  0  0  0  0  0  0  0  0  0
   -9.3259  -27.3045   30.4008 H   0  0  0  0  0  0  0  0  0  0  0  0
  -10.5721  -25.9626   28.7020 H   0  0  0  0  0  0  0  0  0  0  0  0
  -13.7406  -28.1203   26.5540 H   0  0  0  0  0  0  0  0  0  0  0  0
  -14.6213  -26.2765   25.0790 H   0  0  0  0  0  0  0  0  0  0  0  0
  -13.8343  -23.9640   25.5755 H   0  0  0  0  0  0  0  0  0  0  0  0
  -12.7786  -23.9456   28.7719 H   0  0  0  0  0  0  0  0  0  0  0  0
  -10.0230  -23.5534   27.8067 H   0  0  0  0  0  0  0  0  0  0  0  0
  -10.7914  -23.2457   29.4534 H   0  0  0  0  0  0  0  0  0  0  0  0
  -11.6320  -21.8321   26.8135 H   0  0  0  0  0  0  0  0  0  0  0  0
  -12.1846  -21.5060   28.5193 H   0  0  0  0  0  0  0  0  0  0  0  0
  -13.4323  -24.7327   34.1351 H   0  0  0  0  0  0  0  0  0  0  0  0
  -16.7621  -22.5336   33.1921 H   0  0  0  0  0  0  0  0  0  0  0  0
  -13.3823  -21.9861   30.9083 H   0  0  0  0  0  0  0  0  0  0  0  0
  1  2  1  0
  2  3  1  0
  3  4  1  0
  4  5  1  0
  5  6  1  0
  6  7  2  0
  6  8  1  0
  8  9  2  0
  9 10  1  0
 10 11  2  0
 11 12  1  0
 12 13  1  0
 13 14  1  0
 14 15  1  0
 12 16  2  0
  2 17  1  0
 17 18  2  0
 17 19  1  0
 19 20  2  0
 20 21  1  0
 21 22  2  0
 22 23  1  0
 23 24  2  0
 16  8  1  0
 24 19  1  0
 15 13  1  0
  1 25  1  0
  1 26  1  0
  1 27  1  0
  3 28  1  0
  3 29  1  0
  4 30  1  0
  4 31  1  0
  5 32  1  0
  9 33  1  0
 10 34  1  0
 11 35  1  0
 13 36  1  0
 14 37  1  0
 14 38  1  0
 15 39  1  0
 15 40  1  0
 20 41  1  0
 22 42  1  0
 24 43  1  0
M  END
>  <Energy>  (107) 
181.88979430528249

>  <compound_id>  (107) 
34648

>  <target_id>  (107) 
1

>  <reference_id>  (107) 
82

>  <inspiration_ids>  (107) 
[82, 54]

>  <energy_score>  (107) 
98.37297732535654

>  <distance_score>  (107) 
4.121394145742871

>  <path>  (107) 
/opt/xchem-fragalysis-2/maxwin/BulkDock/SCRATCH/511015/C34648-P82/C34648-P82.minimised.mol

>  <scratch_subdir>  (107) 
/opt/xchem-fragalysis-2/maxwin/BulkDock/SCRATCH/511015/C34648-P82

>  <fragmenstein_runtime>  (107) 
9.51027512550354

>  <fragmenstein_outcome>  (107) 
too moved

>  <fragmenstein_mode>  (107) 
expansion

>  <fragmenstein_error>  (107) 


$$$$
C34648-P54
     RDKit          3D

 43 45  0  0  0  0  0  0  0  0999 V2000
  -16.7329  -26.0834   30.2103 C   0  0  0  0  0  0  0  0  0  0  0  0
  -15.7140  -26.9219   29.4854 N   0  0  0  0  0  0  0  0  0  0  0  0
  -16.6795  -26.7046   28.3295 C   0  0  0  0  0  0  0  0  0  0  0  0
  -16.3701  -25.4737   27.4369 C   0  0  0  0  0  0  0  0  0  0  0  0
  -14.9609  -25.1547   27.4649 N   0  0  0  0  0  0  0  0  0  0  0  0
  -13.9312  -25.4057   26.5241 C   0  0  0  0  0  0  0  0  0  0  0  0
  -13.9740  -25.8761   25.4264 O   0  0  0  0  0  0  0  0  0  0  0  0
  -12.5684  -25.0953   27.1013 C   0  0  0  0  0  0  0  0  0  0  0  0
  -11.4967  -25.8533   26.6513 C   0  0  0  0  0  0  0  0  0  0  0  0
  -10.2601  -25.6346   27.2244 C   0  0  0  0  0  0  0  0  0  0  0  0
  -10.1320  -24.6439   28.1911 C   0  0  0  0  0  0  0  0  0  0  0  0
  -11.2424  -23.9020   28.6065 C   0  0  0  0  0  0  0  0  0  0  0  0
  -11.0053  -22.7692   29.5878 C   0  0  0  0  0  0  0  0  0  0  0  0
  -11.1936  -21.3554   29.0735 C   0  0  0  0  0  0  0  0  0  0  0  0
  -12.1050  -21.9019   30.1242 C   0  0  0  0  0  0  0  0  0  0  0  0
  -12.4834  -24.1563   28.0949 N   0  0  0  0  0  0  0  0  0  0  0  0
  -15.4177  -28.0848   30.2368 C   0  0  0  0  0  0  0  0  0  0  0  0
  -15.9157  -29.1763   30.2156 O   0  0  0  0  0  0  0  0  0  0  0  0
  -14.2359  -27.8904   31.1000 C   0  0  0  0  0  0  0  0  0  0  0  0
  -13.1448  -27.1338   30.7256 C   0  0  0  0  0  0  0  0  0  0  0  0
  -12.0456  -26.9734   31.4963 N   0  0  0  0  0  0  0  0  0  0  0  0
  -12.0579  -27.6387   32.6623 C   0  0  0  0  0  0  0  0  0  0  0  0
  -13.0728  -28.3680   33.1447 N   0  0  0  0  0  0  0  0  0  0  0  0
  -14.1411  -28.5009   32.3281 C   0  0  0  0  0  0  0  0  0  0  0  0
  -17.6652  -26.6248   30.4366 H   0  0  0  0  0  0  0  0  0  0  0  0
  -16.8878  -25.0687   29.8331 H   0  0  0  0  0  0  0  0  0  0  0  0
  -16.3035  -25.9121   31.2093 H   0  0  0  0  0  0  0  0  0  0  0  0
  -17.7538  -26.9065   28.4818 H   0  0  0  0  0  0  0  0  0  0  0  0
  -16.4114  -27.5647   27.6928 H   0  0  0  0  0  0  0  0  0  0  0  0
  -16.6559  -25.6964   26.4029 H   0  0  0  0  0  0  0  0  0  0  0  0
  -16.9388  -24.5992   27.7450 H   0  0  0  0  0  0  0  0  0  0  0  0
  -14.5648  -24.6667   28.2658 H   0  0  0  0  0  0  0  0  0  0  0  0
  -11.6325  -26.6130   25.8872 H   0  0  0  0  0  0  0  0  0  0  0  0
   -9.3976  -26.2183   26.9157 H   0  0  0  0  0  0  0  0  0  0  0  0
   -9.1537  -24.4353   28.6176 H   0  0  0  0  0  0  0  0  0  0  0  0
  -10.1840  -22.9248   30.2860 H   0  0  0  0  0  0  0  0  0  0  0  0
  -11.5858  -21.2216   28.0708 H   0  0  0  0  0  0  0  0  0  0  0  0
  -10.5003  -20.5826   29.3708 H   0  0  0  0  0  0  0  0  0  0  0  0
  -11.9995  -21.5201   31.1344 H   0  0  0  0  0  0  0  0  0  0  0  0
  -13.1191  -22.1385   29.8507 H   0  0  0  0  0  0  0  0  0  0  0  0
  -13.1085  -26.6290   29.7648 H   0  0  0  0  0  0  0  0  0  0  0  0
  -11.1700  -27.5731   33.2819 H   0  0  0  0  0  0  0  0  0  0  0  0
  -14.9378  -29.1373   32.7045 H   0  0  0  0  0  0  0  0  0  0  0  0
  1  2  1  0
  2  3  1  0
  3  4  1  0
  4  5  1  0
  5  6  1  0
  6  7  2  0
  6  8  1  0
  8  9  2  0
  9 10  1  0
 10 11  2  0
 11 12  1  0
 12 13  1  0
 13 14  1  0
 14 15  1  0
 12 16  2  0
  2 17  1  0
 17 18  2  0
 17 19  1  0
 19 20  2  0
 20 21  1  0
 21 22  2  0
 22 23  1  0
 23 24  2  0
 16  8  1  0
 24 19  1  0
 15 13  1  0
  1 25  1  0
  1 26  1  0
  1 27  1  0
  3 28  1  0
  3 29  1  0
  4 30  1  0
  4 31  1  0
  5 32  1  0
  9 33  1  0
 10 34  1  0
 11 35  1  0
 13 36  1  0
 14 37  1  0
 14 38  1  0
 15 39  1  0
 15 40  1  0
 20 41  1  0
 22 42  1  0
 24 43  1  0
M  END
>  <Energy>  (108) 
132.26589297167024

>  <compound_id>  (108) 
34648

>  <target_id>  (108) 
1

>  <reference_id>  (108) 
54

>  <inspiration_ids>  (108) 
[82, 54]

>  <energy_score>  (108) 
48.74907599174692

>  <distance_score>  (108) 
4.304953647372784

>  <path>  (108) 
/opt/xchem-fragalysis-2/maxwin/BulkDock/SCRATCH/511015/C34648-P54/C34648-P54.minimised.mol

>  <scratch_subdir>  (108) 
/opt/xchem-fragalysis-2/maxwin/BulkDock/SCRATCH/511015/C34648-P54

>  <fragmenstein_runtime>  (108) 
10.234561920166016

>  <fragmenstein_outcome>  (108) 
too moved

>  <fragmenstein_mode>  (108) 
expansion

>  <fragmenstein_error>  (108) 


$$$$
C34649-P82
     RDKit          3D

 38 40  0  0  0  0  0  0  0  0999 V2000
  -11.2942  -21.1351   30.3778 O   0  0  0  0  0  0  0  0  0  0  0  0
  -12.1117  -21.8459   30.0581 C   0  0  0  0  0  0  0  0  0  0  0  0
  -13.1895  -22.5713   30.8988 N   0  0  0  0  0  0  0  0  0  0  0  0
  -13.3860  -22.6145   32.3245 C   0  0  0  0  0  0  0  0  0  0  0  0
  -12.2770  -23.4464   32.8420 C   0  0  0  0  0  0  0  0  0  0  0  0
  -10.9798  -23.1004   32.6238 C   0  0  0  0  0  0  0  0  0  0  0  0
   -9.9052  -23.8989   32.7434 N   0  0  0  0  0  0  0  0  0  0  0  0
  -10.1666  -25.1248   33.1545 C   0  0  0  0  0  0  0  0  0  0  0  0
  -11.3629  -25.5304   33.5330 N   0  0  0  0  0  0  0  0  0  0  0  0
  -12.3953  -24.6741   33.3848 C   0  0  0  0  0  0  0  0  0  0  0  0
  -12.4126  -22.4468   28.6967 N   0  0  0  0  0  0  0  0  0  0  0  0
  -11.6965  -22.3574   27.4697 C   0  0  0  0  0  0  0  0  0  0  0  0
  -11.6082  -23.7389   26.9547 C   0  0  0  0  0  0  0  0  0  0  0  0
  -12.6635  -24.3798   26.3459 C   0  0  0  0  0  0  0  0  0  0  0  0
  -12.7705  -25.7186   26.6153 C   0  0  0  0  0  0  0  0  0  0  0  0
  -11.9625  -26.3762   27.4764 N   0  0  0  0  0  0  0  0  0  0  0  0
  -10.9014  -25.7100   27.9692 C   0  0  0  0  0  0  0  0  0  0  0  0
  -10.1078  -26.1743   29.1229 C   0  0  0  0  0  0  0  0  0  0  0  0
   -9.9762  -25.2241   30.2762 C   0  0  0  0  0  0  0  0  0  0  0  0
  -10.7712  -26.4649   30.4268 C   0  0  0  0  0  0  0  0  0  0  0  0
  -10.6085  -24.4524   27.5509 C   0  0  0  0  0  0  0  0  0  0  0  0
  -13.7178  -23.2037   30.3056 H   0  0  0  0  0  0  0  0  0  0  0  0
  -14.3712  -23.0399   32.5332 H   0  0  0  0  0  0  0  0  0  0  0  0
  -13.3270  -21.6008   32.7290 H   0  0  0  0  0  0  0  0  0  0  0  0
  -10.7606  -22.0910   32.3023 H   0  0  0  0  0  0  0  0  0  0  0  0
   -9.3338  -25.8031   33.2149 H   0  0  0  0  0  0  0  0  0  0  0  0
  -13.3498  -25.0313   33.7399 H   0  0  0  0  0  0  0  0  0  0  0  0
  -13.1694  -23.1087   28.7792 H   0  0  0  0  0  0  0  0  0  0  0  0
  -12.0877  -21.6870   26.7357 H   0  0  0  0  0  0  0  0  0  0  0  0
  -10.7372  -21.9516   27.7746 H   0  0  0  0  0  0  0  0  0  0  0  0
  -13.4352  -23.8419   25.8086 H   0  0  0  0  0  0  0  0  0  0  0  0
  -13.5805  -26.3099   26.2001 H   0  0  0  0  0  0  0  0  0  0  0  0
   -9.2012  -26.6922   28.8688 H   0  0  0  0  0  0  0  0  0  0  0  0
   -9.0219  -25.1822   30.7687 H   0  0  0  0  0  0  0  0  0  0  0  0
  -10.5453  -24.3068   30.2641 H   0  0  0  0  0  0  0  0  0  0  0  0
  -11.8401  -26.3168   30.4665 H   0  0  0  0  0  0  0  0  0  0  0  0
  -10.3650  -27.2626   31.0334 H   0  0  0  0  0  0  0  0  0  0  0  0
   -9.7781  -23.9294   27.9923 H   0  0  0  0  0  0  0  0  0  0  0  0
  1  2  2  0
  2  3  1  0
  3  4  1  0
  4  5  1  0
  5  6  2  0
  6  7  1  0
  7  8  2  0
  8  9  1  0
  9 10  2  0
  2 11  1  0
 11 12  1  0
 12 13  1  0
 13 14  2  0
 14 15  1  0
 15 16  2  0
 16 17  1  0
 17 18  1  0
 18 19  1  0
 19 20  1  0
 17 21  2  0
 10  5  1  0
 21 13  1  0
 20 18  1  0
  3 22  1  0
  4 23  1  0
  4 24  1  0
  6 25  1  0
  8 26  1  0
 10 27  1  0
 11 28  1  0
 12 29  1  0
 12 30  1  0
 14 31  1  0
 15 32  1  0
 18 33  1  0
 19 34  1  0
 19 35  1  0
 20 36  1  0
 20 37  1  0
 21 38  1  0
M  END
>  <Energy>  (109) 
-8.2730616101933574

>  <compound_id>  (109) 
34649

>  <target_id>  (109) 
1

>  <reference_id>  (109) 
82

>  <inspiration_ids>  (109) 
[82, 54]

>  <energy_score>  (109) 
57.609994244323076

>  <distance_score>  (109) 
3.1380445040380733

>  <path>  (109) 
/opt/xchem-fragalysis-2/maxwin/BulkDock/SCRATCH/511015/C34649-P82/C34649-P82.minimised.mol

>  <scratch_subdir>  (109) 
/opt/xchem-fragalysis-2/maxwin/BulkDock/SCRATCH/511015/C34649-P82

>  <fragmenstein_runtime>  (109) 
4.65685510635376

>  <fragmenstein_outcome>  (109) 
too moved

>  <fragmenstein_mode>  (109) 
expansion

>  <fragmenstein_error>  (109) 


$$$$
C34649-P54
     RDKit          3D

 38 40  0  0  0  0  0  0  0  0999 V2000
  -10.7083  -28.0339   28.4404 O   0  0  0  0  0  0  0  0  0  0  0  0
  -11.6061  -27.4883   28.0197 C   0  0  0  0  0  0  0  0  0  0  0  0
  -13.1101  -27.7181   28.2556 N   0  0  0  0  0  0  0  0  0  0  0  0
  -13.7834  -28.6209   29.1443 C   0  0  0  0  0  0  0  0  0  0  0  0
  -13.3184  -28.0838   30.4882 C   0  0  0  0  0  0  0  0  0  0  0  0
  -12.6791  -28.8582   31.4264 C   0  0  0  0  0  0  0  0  0  0  0  0
  -11.9140  -28.3598   32.4082 N   0  0  0  0  0  0  0  0  0  0  0  0
  -11.7669  -27.0447   32.3924 C   0  0  0  0  0  0  0  0  0  0  0  0
  -12.4147  -26.1760   31.6059 N   0  0  0  0  0  0  0  0  0  0  0  0
  -13.2053  -26.7231   30.6850 C   0  0  0  0  0  0  0  0  0  0  0  0
  -11.6806  -26.2434   27.1321 N   0  0  0  0  0  0  0  0  0  0  0  0
  -10.6532  -25.3793   26.6724 C   0  0  0  0  0  0  0  0  0  0  0  0
  -10.6813  -24.1500   27.5466 C   0  0  0  0  0  0  0  0  0  0  0  0
  -11.2490  -22.9666   27.0956 C   0  0  0  0  0  0  0  0  0  0  0  0
  -11.2174  -21.8695   27.9356 C   0  0  0  0  0  0  0  0  0  0  0  0
  -10.6948  -21.8717   29.1772 N   0  0  0  0  0  0  0  0  0  0  0  0
  -10.1469  -23.0182   29.6387 C   0  0  0  0  0  0  0  0  0  0  0  0
   -9.4079  -22.9692   30.9545 C   0  0  0  0  0  0  0  0  0  0  0  0
  -10.1513  -22.5576   32.2020 C   0  0  0  0  0  0  0  0  0  0  0  0
   -9.6386  -23.9606   32.0521 C   0  0  0  0  0  0  0  0  0  0  0  0
  -10.1582  -24.1672   28.8481 C   0  0  0  0  0  0  0  0  0  0  0  0
  -13.6374  -27.0033   27.7910 H   0  0  0  0  0  0  0  0  0  0  0  0
  -14.8652  -28.5363   29.0224 H   0  0  0  0  0  0  0  0  0  0  0  0
  -13.4253  -29.6378   28.9662 H   0  0  0  0  0  0  0  0  0  0  0  0
  -12.6878  -29.9438   31.3628 H   0  0  0  0  0  0  0  0  0  0  0  0
  -11.0393  -26.6535   33.0885 H   0  0  0  0  0  0  0  0  0  0  0  0
  -13.6675  -26.0165   30.0010 H   0  0  0  0  0  0  0  0  0  0  0  0
  -12.6369  -25.9757   27.0080 H   0  0  0  0  0  0  0  0  0  0  0  0
   -9.6885  -25.8884   26.7554 H   0  0  0  0  0  0  0  0  0  0  0  0
  -10.8365  -25.1287   25.6383 H   0  0  0  0  0  0  0  0  0  0  0  0
  -11.6780  -22.8677   26.1042 H   0  0  0  0  0  0  0  0  0  0  0  0
  -11.5881  -20.9063   27.6070 H   0  0  0  0  0  0  0  0  0  0  0  0
   -8.3762  -22.6476   30.8753 H   0  0  0  0  0  0  0  0  0  0  0  0
   -9.6451  -21.8910   32.8904 H   0  0  0  0  0  0  0  0  0  0  0  0
  -11.2184  -22.3830   32.1259 H   0  0  0  0  0  0  0  0  0  0  0  0
  -10.3253  -24.7577   31.8285 H   0  0  0  0  0  0  0  0  0  0  0  0
   -8.7897  -24.2545   32.6584 H   0  0  0  0  0  0  0  0  0  0  0  0
   -9.7199  -25.0687   29.2451 H   0  0  0  0  0  0  0  0  0  0  0  0
  1  2  2  0
  2  3  1  0
  3  4  1  0
  4  5  1  0
  5  6  2  0
  6  7  1  0
  7  8  2  0
  8  9  1  0
  9 10  2  0
  2 11  1  0
 11 12  1  0
 12 13  1  0
 13 14  2  0
 14 15  1  0
 15 16  2  0
 16 17  1  0
 17 18  1  0
 18 19  1  0
 19 20  1  0
 17 21  2  0
 10  5  1  0
 21 13  1  0
 20 18  1  0
  3 22  1  0
  4 23  1  0
  4 24  1  0
  6 25  1  0
  8 26  1  0
 10 27  1  0
 11 28  1  0
 12 29  1  0
 12 30  1  0
 14 31  1  0
 15 32  1  0
 18 33  1  0
 19 34  1  0
 19 35  1  0
 20 36  1  0
 20 37  1  0
 21 38  1  0
M  END
>  <Energy>  (110) 
-35.882412891611693

>  <compound_id>  (110) 
34649

>  <target_id>  (110) 
1

>  <reference_id>  (110) 
54

>  <inspiration_ids>  (110) 
[82, 54]

>  <energy_score>  (110) 
30.000642962906376

>  <distance_score>  (110) 
2.968191814960079

>  <path>  (110) 
/opt/xchem-fragalysis-2/maxwin/BulkDock/SCRATCH/511015/C34649-P54/C34649-P54.minimised.mol

>  <scratch_subdir>  (110) 
/opt/xchem-fragalysis-2/maxwin/BulkDock/SCRATCH/511015/C34649-P54

>  <fragmenstein_runtime>  (110) 
4.456707239151001

>  <fragmenstein_outcome>  (110) 
too moved

>  <fragmenstein_mode>  (110) 
expansion

>  <fragmenstein_error>  (110) 


$$$$
C34650-P82
     RDKit          3D

 36 38  0  0  0  0  0  0  0  0999 V2000
  -13.7922  -22.1094   31.1468 O   0  0  0  0  0  0  0  0  0  0  0  0
  -12.6814  -22.5678   31.1938 C   0  0  0  0  0  0  0  0  0  0  0  0
  -11.9602  -23.4275   30.2485 N   0  0  0  0  0  0  0  0  0  0  0  0
  -12.3877  -24.0504   29.0486 C   0  0  0  0  0  0  0  0  0  0  0  0
  -11.4710  -24.9111   28.2563 C   0  0  0  0  0  0  0  0  0  0  0  0
  -12.2410  -25.8234   27.3272 C   0  0  0  0  0  0  0  0  0  0  0  0
  -12.3130  -27.1948   27.5449 C   0  0  0  0  0  0  0  0  0  0  0  0
  -13.0973  -27.9852   26.7126 C   0  0  0  0  0  0  0  0  0  0  0  0
  -13.8218  -27.3837   25.6941 C   0  0  0  0  0  0  0  0  0  0  0  0
  -13.7180  -26.0161   25.5431 C   0  0  0  0  0  0  0  0  0  0  0  0
  -12.9371  -25.2430   26.3191 N   0  0  0  0  0  0  0  0  0  0  0  0
  -10.3329  -24.1584   27.6567 C   0  0  0  0  0  0  0  0  0  0  0  0
  -10.0542  -25.2479   28.6509 C   0  0  0  0  0  0  0  0  0  0  0  0
  -11.8415  -22.3304   32.5053 C   0  0  0  0  0  0  0  0  0  0  0  0
  -12.6095  -21.8293   33.5170 F   0  0  0  0  0  0  0  0  0  0  0  0
  -10.9230  -21.3510   32.2401 F   0  0  0  0  0  0  0  0  0  0  0  0
  -11.2169  -23.6469   32.8575 C   0  0  0  0  0  0  0  0  0  0  0  0
  -11.9728  -24.7615   32.9582 C   0  0  0  0  0  0  0  0  0  0  0  0
  -11.4882  -25.9368   32.5476 N   0  0  0  0  0  0  0  0  0  0  0  0
  -10.2386  -26.0251   32.1110 C   0  0  0  0  0  0  0  0  0  0  0  0
   -9.3656  -25.0479   32.2102 N   0  0  0  0  0  0  0  0  0  0  0  0
   -9.8894  -23.8971   32.6261 C   0  0  0  0  0  0  0  0  0  0  0  0
  -11.0174  -23.5518   30.5695 H   0  0  0  0  0  0  0  0  0  0  0  0
  -12.7607  -23.2555   28.3983 H   0  0  0  0  0  0  0  0  0  0  0  0
  -13.1431  -24.7434   29.4069 H   0  0  0  0  0  0  0  0  0  0  0  0
  -11.7872  -27.6326   28.3849 H   0  0  0  0  0  0  0  0  0  0  0  0
  -13.1578  -29.0586   26.8708 H   0  0  0  0  0  0  0  0  0  0  0  0
  -14.4603  -27.9668   25.0393 H   0  0  0  0  0  0  0  0  0  0  0  0
  -14.2798  -25.4856   24.7788 H   0  0  0  0  0  0  0  0  0  0  0  0
  -10.1794  -24.3180   26.5986 H   0  0  0  0  0  0  0  0  0  0  0  0
  -10.2714  -23.1191   27.9456 H   0  0  0  0  0  0  0  0  0  0  0  0
   -9.6069  -26.1603   28.2772 H   0  0  0  0  0  0  0  0  0  0  0  0
   -9.6948  -24.9837   29.6299 H   0  0  0  0  0  0  0  0  0  0  0  0
  -13.0300  -24.7288   33.1982 H   0  0  0  0  0  0  0  0  0  0  0  0
   -9.9409  -26.9378   31.6138 H   0  0  0  0  0  0  0  0  0  0  0  0
   -9.1689  -23.1079   32.6794 H   0  0  0  0  0  0  0  0  0  0  0  0
  1  2  2  0
  2  3  1  0
  3  4  1  0
  4  5  1  0
  5  6  1  0
  6  7  2  0
  7  8  1  0
  8  9  2  0
  9 10  1  0
 10 11  2  0
  5 12  1  0
 12 13  1  0
  2 14  1  0
 14 15  1  0
 14 16  1  0
 14 17  1  0
 17 18  2  0
 18 19  1  0
 19 20  2  0
 20 21  1  0
 21 22  2  0
 13  5  1  0
 22 17  1  0
 11  6  1  0
  3 23  1  0
  4 24  1  0
  4 25  1  0
  7 26  1  0
  8 27  1  0
  9 28  1  0
 10 29  1  0
 12 30  1  0
 12 31  1  0
 13 32  1  0
 13 33  1  0
 18 34  1  0
 20 35  1  0
 22 36  1  0
M  END
>  <Energy>  (111) 
108.78702276820212

>  <compound_id>  (111) 
34650

>  <target_id>  (111) 
1

>  <reference_id>  (111) 
82

>  <inspiration_ids>  (111) 
[82, 54]

>  <energy_score>  (111) 
11.579970615420876

>  <distance_score>  (111) 
3.9142401943863345

>  <path>  (111) 
/opt/xchem-fragalysis-2/maxwin/BulkDock/SCRATCH/511015/C34650-P82/C34650-P82.minimised.mol

>  <scratch_subdir>  (111) 
/opt/xchem-fragalysis-2/maxwin/BulkDock/SCRATCH/511015/C34650-P82

>  <fragmenstein_runtime>  (111) 
5.5932183265686035

>  <fragmenstein_outcome>  (111) 
too moved

>  <fragmenstein_mode>  (111) 
expansion

>  <fragmenstein_error>  (111) 


$$$$
C34650-P54
     RDKit          3D

 36 38  0  0  0  0  0  0  0  0999 V2000
   -8.2738  -21.7717   33.0492 O   0  0  0  0  0  0  0  0  0  0  0  0
   -9.3798  -22.1384   33.0119 C   0  0  0  0  0  0  0  0  0  0  0  0
   -9.9775  -23.4840   32.5167 N   0  0  0  0  0  0  0  0  0  0  0  0
   -9.3512  -24.5988   31.8861 C   0  0  0  0  0  0  0  0  0  0  0  0
   -9.5632  -24.3654   30.3651 C   0  0  0  0  0  0  0  0  0  0  0  0
  -10.8890  -24.7191   29.6643 C   0  0  0  0  0  0  0  0  0  0  0  0
  -11.7153  -25.7656   30.0307 C   0  0  0  0  0  0  0  0  0  0  0  0
  -12.8392  -26.0443   29.2517 C   0  0  0  0  0  0  0  0  0  0  0  0
  -13.1303  -25.2755   28.1299 C   0  0  0  0  0  0  0  0  0  0  0  0
  -12.2628  -24.2667   27.8014 C   0  0  0  0  0  0  0  0  0  0  0  0
  -11.1610  -24.0126   28.5206 N   0  0  0  0  0  0  0  0  0  0  0  0
   -8.9067  -23.0699   29.9326 C   0  0  0  0  0  0  0  0  0  0  0  0
   -8.4486  -24.3273   29.3238 C   0  0  0  0  0  0  0  0  0  0  0  0
  -10.6650  -21.2894   33.3746 C   0  0  0  0  0  0  0  0  0  0  0  0
  -11.4405  -21.9757   34.2473 F   0  0  0  0  0  0  0  0  0  0  0  0
  -10.3679  -20.1306   34.0076 F   0  0  0  0  0  0  0  0  0  0  0  0
  -11.3222  -21.0227   32.0391 C   0  0  0  0  0  0  0  0  0  0  0  0
  -11.8638  -21.9716   31.2088 C   0  0  0  0  0  0  0  0  0  0  0  0
  -12.1077  -21.8626   29.9009 N   0  0  0  0  0  0  0  0  0  0  0  0
  -11.6419  -20.7650   29.3550 C   0  0  0  0  0  0  0  0  0  0  0  0
  -11.2380  -19.7071   30.0524 N   0  0  0  0  0  0  0  0  0  0  0  0
  -11.1268  -19.8459   31.3920 C   0  0  0  0  0  0  0  0  0  0  0  0
  -10.9564  -23.5013   32.7004 H   0  0  0  0  0  0  0  0  0  0  0  0
   -9.8781  -25.4822   32.2406 H   0  0  0  0  0  0  0  0  0  0  0  0
   -8.3141  -24.6343   32.2019 H   0  0  0  0  0  0  0  0  0  0  0  0
  -11.4915  -26.3877   30.8875 H   0  0  0  0  0  0  0  0  0  0  0  0
  -13.4949  -26.8694   29.5203 H   0  0  0  0  0  0  0  0  0  0  0  0
  -14.0102  -25.4716   27.5276 H   0  0  0  0  0  0  0  0  0  0  0  0
  -12.4214  -23.6285   26.9385 H   0  0  0  0  0  0  0  0  0  0  0  0
   -9.4593  -22.3975   29.2944 H   0  0  0  0  0  0  0  0  0  0  0  0
   -8.2140  -22.6146   30.6226 H   0  0  0  0  0  0  0  0  0  0  0  0
   -8.7186  -24.5127   28.2874 H   0  0  0  0  0  0  0  0  0  0  0  0
   -7.4635  -24.6813   29.5080 H   0  0  0  0  0  0  0  0  0  0  0  0
  -12.0650  -22.9754   31.5052 H   0  0  0  0  0  0  0  0  0  0  0  0
  -11.6205  -20.6956   28.2747 H   0  0  0  0  0  0  0  0  0  0  0  0
  -10.7223  -18.9734   31.9034 H   0  0  0  0  0  0  0  0  0  0  0  0
  1  2  2  0
  2  3  1  0
  3  4  1  0
  4  5  1  0
  5  6  1  0
  6  7  2  0
  7  8  1  0
  8  9  2  0
  9 10  1  0
 10 11  2  0
  5 12  1  0
 12 13  1  0
  2 14  1  0
 14 15  1  0
 14 16  1  0
 14 17  1  0
 17 18  2  0
 18 19  1  0
 19 20  2  0
 20 21  1  0
 21 22  2  0
 13  5  1  0
 22 17  1  0
 11  6  1  0
  3 23  1  0
  4 24  1  0
  4 25  1  0
  7 26  1  0
  8 27  1  0
  9 28  1  0
 10 29  1  0
 12 30  1  0
 12 31  1  0
 13 32  1  0
 13 33  1  0
 18 34  1  0
 20 35  1  0
 22 36  1  0
M  END
>  <Energy>  (112) 
131.57702920964496

>  <compound_id>  (112) 
34650

>  <target_id>  (112) 
1

>  <reference_id>  (112) 
54

>  <inspiration_ids>  (112) 
[82, 54]

>  <energy_score>  (112) 
37.068669112514456

>  <distance_score>  (112) 
3.3960503806601112

>  <path>  (112) 
/opt/xchem-fragalysis-2/maxwin/BulkDock/SCRATCH/511015/C34650-P54/C34650-P54.minimised.mol

>  <scratch_subdir>  (112) 
/opt/xchem-fragalysis-2/maxwin/BulkDock/SCRATCH/511015/C34650-P54

>  <fragmenstein_runtime>  (112) 
3.401643991470337

>  <fragmenstein_outcome>  (112) 
too moved

>  <fragmenstein_mode>  (112) 
expansion

>  <fragmenstein_error>  (112) 


$$$$
C34651-P82
     RDKit          3D

 35 37  0  0  0  0  0  0  0  0999 V2000
  -12.0503  -22.1807   30.4733 O   0  0  0  0  0  0  0  0  0  0  0  0
  -12.4469  -23.3139   30.7380 C   0  0  0  0  0  0  0  0  0  0  0  0
  -12.9696  -23.6416   32.1369 C   0  0  0  0  0  0  0  0  0  0  0  0
  -12.0328  -24.3087   33.1695 C   0  0  0  0  0  0  0  0  0  0  0  0
  -10.9088  -25.0459   32.5485 C   0  0  0  0  0  0  0  0  0  0  0  0
   -9.9356  -24.3918   31.9170 C   0  0  0  0  0  0  0  0  0  0  0  0
   -9.4102  -24.8266   30.7622 N   0  0  0  0  0  0  0  0  0  0  0  0
   -9.7850  -26.0142   30.3227 C   0  0  0  0  0  0  0  0  0  0  0  0
  -10.4372  -26.8707   31.0604 N   0  0  0  0  0  0  0  0  0  0  0  0
  -10.8464  -26.3541   32.2297 C   0  0  0  0  0  0  0  0  0  0  0  0
  -12.4626  -24.4003   29.9017 O   0  0  0  0  0  0  0  0  0  0  0  0
  -12.2070  -24.3531   28.4518 C   0  0  0  0  0  0  0  0  0  0  0  0
  -12.6441  -25.5665   27.6254 C   0  0  0  0  0  0  0  0  0  0  0  0
  -12.2128  -26.8578   27.9065 C   0  0  0  0  0  0  0  0  0  0  0  0
  -12.5750  -27.9191   27.0776 C   0  0  0  0  0  0  0  0  0  0  0  0
  -13.3598  -27.6770   25.9634 C   0  0  0  0  0  0  0  0  0  0  0  0
  -13.7623  -26.3813   25.7339 C   0  0  0  0  0  0  0  0  0  0  0  0
  -13.4270  -25.3519   26.5327 N   0  0  0  0  0  0  0  0  0  0  0  0
  -12.1964  -23.0258   27.7046 C   0  0  0  0  0  0  0  0  0  0  0  0
  -10.9253  -23.7126   28.0184 C   0  0  0  0  0  0  0  0  0  0  0  0
  -13.8796  -24.2194   32.0275 H   0  0  0  0  0  0  0  0  0  0  0  0
  -13.3318  -22.6978   32.5684 H   0  0  0  0  0  0  0  0  0  0  0  0
  -11.6420  -23.5328   33.8341 H   0  0  0  0  0  0  0  0  0  0  0  0
  -12.6252  -24.9714   33.8021 H   0  0  0  0  0  0  0  0  0  0  0  0
   -9.6604  -23.4169   32.2848 H   0  0  0  0  0  0  0  0  0  0  0  0
   -9.4977  -26.3002   29.3217 H   0  0  0  0  0  0  0  0  0  0  0  0
  -11.0582  -27.0989   32.9623 H   0  0  0  0  0  0  0  0  0  0  0  0
  -11.6253  -27.0520   28.7913 H   0  0  0  0  0  0  0  0  0  0  0  0
  -12.2476  -28.9297   27.3062 H   0  0  0  0  0  0  0  0  0  0  0  0
  -13.6577  -28.4808   25.2996 H   0  0  0  0  0  0  0  0  0  0  0  0
  -14.3882  -26.1212   24.8849 H   0  0  0  0  0  0  0  0  0  0  0  0
  -12.3641  -22.0921   28.2137 H   0  0  0  0  0  0  0  0  0  0  0  0
  -12.4897  -23.0029   26.6611 H   0  0  0  0  0  0  0  0  0  0  0  0
  -10.3698  -24.1514   27.2049 H   0  0  0  0  0  0  0  0  0  0  0  0
  -10.3804  -23.1751   28.7491 H   0  0  0  0  0  0  0  0  0  0  0  0
  1  2  2  0
  2  3  1  0
  3  4  1  0
  4  5  1  0
  5  6  2  0
  6  7  1  0
  7  8  2  0
  8  9  1  0
  9 10  2  0
  2 11  1  0
 11 12  1  0
 12 13  1  0
 13 14  2  0
 14 15  1  0
 15 16  2  0
 16 17  1  0
 17 18  2  0
 12 19  1  0
 19 20  1  0
 10  5  1  0
 20 12  1  0
 18 13  1  0
  3 21  1  0
  3 22  1  0
  4 23  1  0
  4 24  1  0
  6 25  1  0
  8 26  1  0
 10 27  1  0
 14 28  1  0
 15 29  1  0
 16 30  1  0
 17 31  1  0
 19 32  1  0
 19 33  1  0
 20 34  1  0
 20 35  1  0
M  END
>  <Energy>  (113) 
68.966782390559899

>  <compound_id>  (113) 
34651

>  <target_id>  (113) 
1

>  <reference_id>  (113) 
82

>  <inspiration_ids>  (113) 
[82, 54]

>  <energy_score>  (113) 
21.395438386149635

>  <distance_score>  (113) 
3.985704790922533

>  <path>  (113) 
/opt/xchem-fragalysis-2/maxwin/BulkDock/SCRATCH/511015/C34651-P82/C34651-P82.minimised.mol

>  <scratch_subdir>  (113) 
/opt/xchem-fragalysis-2/maxwin/BulkDock/SCRATCH/511015/C34651-P82

>  <fragmenstein_runtime>  (113) 
4.947605609893799

>  <fragmenstein_outcome>  (113) 
too moved

>  <fragmenstein_mode>  (113) 
expansion

>  <fragmenstein_error>  (113) 


$$$$
C34651-P54
     RDKit          3D

 35 37  0  0  0  0  0  0  0  0999 V2000
   -9.1263  -22.5551   28.4837 O   0  0  0  0  0  0  0  0  0  0  0  0
   -9.3266  -23.3319   29.4036 C   0  0  0  0  0  0  0  0  0  0  0  0
   -9.3473  -22.8899   30.8520 C   0  0  0  0  0  0  0  0  0  0  0  0
   -9.4577  -23.9318   31.9450 C   0  0  0  0  0  0  0  0  0  0  0  0
  -10.5046  -24.9692   31.8004 C   0  0  0  0  0  0  0  0  0  0  0  0
  -10.4950  -26.0649   32.6277 C   0  0  0  0  0  0  0  0  0  0  0  0
  -11.3910  -27.0784   32.5919 N   0  0  0  0  0  0  0  0  0  0  0  0
  -12.3187  -26.9918   31.6417 C   0  0  0  0  0  0  0  0  0  0  0  0
  -12.4943  -25.9329   30.8462 N   0  0  0  0  0  0  0  0  0  0  0  0
  -11.5932  -24.9307   30.9725 C   0  0  0  0  0  0  0  0  0  0  0  0
   -9.6456  -24.6348   29.2680 O   0  0  0  0  0  0  0  0  0  0  0  0
  -10.4064  -25.0796   28.1308 C   0  0  0  0  0  0  0  0  0  0  0  0
  -11.5212  -24.2329   27.5880 C   0  0  0  0  0  0  0  0  0  0  0  0
  -12.8464  -24.6353   27.7716 C   0  0  0  0  0  0  0  0  0  0  0  0
  -13.8258  -24.1375   26.9397 C   0  0  0  0  0  0  0  0  0  0  0  0
  -13.4750  -23.1833   26.0025 C   0  0  0  0  0  0  0  0  0  0  0  0
  -12.1739  -22.7252   25.9813 C   0  0  0  0  0  0  0  0  0  0  0  0
  -11.1994  -23.2355   26.7427 N   0  0  0  0  0  0  0  0  0  0  0  0
   -9.6512  -25.9977   27.2375 C   0  0  0  0  0  0  0  0  0  0  0  0
  -10.7242  -26.5769   28.0977 C   0  0  0  0  0  0  0  0  0  0  0  0
   -8.4075  -22.3794   31.0516 H   0  0  0  0  0  0  0  0  0  0  0  0
  -10.1723  -22.1742   30.9499 H   0  0  0  0  0  0  0  0  0  0  0  0
   -8.5014  -24.4479   32.0453 H   0  0  0  0  0  0  0  0  0  0  0  0
   -9.6184  -23.4088   32.8973 H   0  0  0  0  0  0  0  0  0  0  0  0
   -9.6891  -26.1879   33.3486 H   0  0  0  0  0  0  0  0  0  0  0  0
  -13.0072  -27.8226   31.5360 H   0  0  0  0  0  0  0  0  0  0  0  0
  -11.8214  -24.0467   30.3836 H   0  0  0  0  0  0  0  0  0  0  0  0
  -13.1086  -25.4268   28.4642 H   0  0  0  0  0  0  0  0  0  0  0  0
  -14.8529  -24.4817   27.0230 H   0  0  0  0  0  0  0  0  0  0  0  0
  -14.2135  -22.7368   25.3454 H   0  0  0  0  0  0  0  0  0  0  0  0
  -11.8792  -21.9365   25.2974 H   0  0  0  0  0  0  0  0  0  0  0  0
   -9.8524  -25.9290   26.1770 H   0  0  0  0  0  0  0  0  0  0  0  0
   -8.6154  -26.2145   27.4512 H   0  0  0  0  0  0  0  0  0  0  0  0
  -10.5683  -27.1753   28.9786 H   0  0  0  0  0  0  0  0  0  0  0  0
  -11.5810  -26.9622   27.5481 H   0  0  0  0  0  0  0  0  0  0  0  0
  1  2  2  0
  2  3  1  0
  3  4  1  0
  4  5  1  0
  5  6  2  0
  6  7  1  0
  7  8  2  0
  8  9  1  0
  9 10  2  0
  2 11  1  0
 11 12  1  0
 12 13  1  0
 13 14  2  0
 14 15  1  0
 15 16  2  0
 16 17  1  0
 17 18  2  0
 12 19  1  0
 19 20  1  0
 10  5  1  0
 20 12  1  0
 18 13  1  0
  3 21  1  0
  3 22  1  0
  4 23  1  0
  4 24  1  0
  6 25  1  0
  8 26  1  0
 10 27  1  0
 14 28  1  0
 15 29  1  0
 16 30  1  0
 17 31  1  0
 19 32  1  0
 19 33  1  0
 20 34  1  0
 20 35  1  0
M  END
>  <Energy>  (114) 
49.778256670806535

>  <compound_id>  (114) 
34651

>  <target_id>  (114) 
1

>  <reference_id>  (114) 
54

>  <inspiration_ids>  (114) 
[82, 54]

>  <energy_score>  (114) 
-0.5947652335060809

>  <distance_score>  (114) 
3.9462909430163218

>  <path>  (114) 
/opt/xchem-fragalysis-2/maxwin/BulkDock/SCRATCH/511015/C34651-P54/C34651-P54.minimised.mol

>  <scratch_subdir>  (114) 
/opt/xchem-fragalysis-2/maxwin/BulkDock/SCRATCH/511015/C34651-P54

>  <fragmenstein_runtime>  (114) 
3.640291213989258

>  <fragmenstein_outcome>  (114) 
too moved

>  <fragmenstein_mode>  (114) 
expansion

>  <fragmenstein_error>  (114) 


$$$$
C34652-P82
     RDKit          3D

 44 46  0  0  0  0  0  0  0  0999 V2000
  -14.9760  -23.1396   32.7433 O   0  0  0  0  0  0  0  0  0  0  0  0
  -14.3948  -23.8596   33.4526 C   0  0  0  0  0  0  0  0  0  0  0  0
  -14.9050  -24.8896   34.4067 N   0  0  0  0  0  0  0  0  0  0  0  0
  -16.2514  -25.3600   34.6600 C   0  0  0  0  0  0  0  0  0  0  0  0
  -17.4094  -24.7426   33.8877 C   0  0  0  0  0  0  0  0  0  0  0  0
  -17.8367  -23.3609   34.3947 C   0  0  0  0  0  0  0  0  0  0  0  0
  -17.4039  -22.2030   33.5522 C   0  0  0  0  0  0  0  0  0  0  0  0
  -16.7623  -21.1015   34.0853 C   0  0  0  0  0  0  0  0  0  0  0  0
  -16.4080  -20.0151   33.3728 N   0  0  0  0  0  0  0  0  0  0  0  0
  -16.7361  -20.0698   32.0751 C   0  0  0  0  0  0  0  0  0  0  0  0
  -17.3087  -21.0823   31.4175 N   0  0  0  0  0  0  0  0  0  0  0  0
  -17.6232  -22.1424   32.1861 C   0  0  0  0  0  0  0  0  0  0  0  0
  -12.9555  -24.0687   33.6117 N   0  0  0  0  0  0  0  0  0  0  0  0
  -11.8527  -23.5304   32.8904 C   0  0  0  0  0  0  0  0  0  0  0  0
  -11.4437  -24.3895   31.7401 C   0  0  0  0  0  0  0  0  0  0  0  0
  -10.5470  -25.4368   31.8998 C   0  0  0  0  0  0  0  0  0  0  0  0
  -10.2291  -26.2021   30.7963 C   0  0  0  0  0  0  0  0  0  0  0  0
  -10.7078  -25.9769   29.5583 N   0  0  0  0  0  0  0  0  0  0  0  0
  -11.5829  -24.9560   29.4008 C   0  0  0  0  0  0  0  0  0  0  0  0
  -12.1051  -24.6965   28.0227 C   0  0  0  0  0  0  0  0  0  0  0  0
  -11.1190  -24.4956   26.9051 C   0  0  0  0  0  0  0  0  0  0  0  0
  -11.9325  -23.3409   27.3862 C   0  0  0  0  0  0  0  0  0  0  0  0
  -11.9767  -24.1648   30.4749 C   0  0  0  0  0  0  0  0  0  0  0  0
  -14.1300  -25.2779   34.9265 H   0  0  0  0  0  0  0  0  0  0  0  0
  -16.4269  -25.2815   35.7378 H   0  0  0  0  0  0  0  0  0  0  0  0
  -16.2275  -26.4350   34.4460 H   0  0  0  0  0  0  0  0  0  0  0  0
  -17.2110  -24.7590   32.8152 H   0  0  0  0  0  0  0  0  0  0  0  0
  -18.2674  -25.4115   34.0416 H   0  0  0  0  0  0  0  0  0  0  0  0
  -17.5103  -23.2204   35.4327 H   0  0  0  0  0  0  0  0  0  0  0  0
  -18.9343  -23.3272   34.4245 H   0  0  0  0  0  0  0  0  0  0  0  0
  -16.5183  -21.0522   35.1416 H   0  0  0  0  0  0  0  0  0  0  0  0
  -16.5612  -19.1759   31.4965 H   0  0  0  0  0  0  0  0  0  0  0  0
  -18.0803  -22.9688   31.6496 H   0  0  0  0  0  0  0  0  0  0  0  0
  -12.7955  -24.7064   34.3726 H   0  0  0  0  0  0  0  0  0  0  0  0
  -12.1161  -22.5241   32.5458 H   0  0  0  0  0  0  0  0  0  0  0  0
  -11.0267  -23.4382   33.5789 H   0  0  0  0  0  0  0  0  0  0  0  0
  -10.1148  -25.6785   32.8631 H   0  0  0  0  0  0  0  0  0  0  0  0
   -9.5674  -27.0578   30.8929 H   0  0  0  0  0  0  0  0  0  0  0  0
  -13.0040  -25.2449   27.7637 H   0  0  0  0  0  0  0  0  0  0  0  0
  -10.0720  -24.5067   27.1615 H   0  0  0  0  0  0  0  0  0  0  0  0
  -11.3577  -24.9146   25.9365 H   0  0  0  0  0  0  0  0  0  0  0  0
  -11.4299  -22.5557   27.9373 H   0  0  0  0  0  0  0  0  0  0  0  0
  -12.7104  -22.9949   26.7215 H   0  0  0  0  0  0  0  0  0  0  0  0
  -12.7103  -23.3775   30.3261 H   0  0  0  0  0  0  0  0  0  0  0  0
  1  2  2  0
  2  3  1  0
  3  4  1  0
  4  5  1  0
  5  6  1  0
  6  7  1  0
  7  8  2  0
  8  9  1  0
  9 10  2  0
 10 11  1  0
 11 12  2  0
  2 13  1  0
 13 14  1  0
 14 15  1  0
 15 16  2  0
 16 17  1  0
 17 18  2  0
 18 19  1  0
 19 20  1  0
 20 21  1  0
 21 22  1  0
 19 23  2  0
 12  7  1  0
 23 15  1  0
 22 20  1  0
  3 24  1  0
  4 25  1  0
  4 26  1  0
  5 27  1  0
  5 28  1  0
  6 29  1  0
  6 30  1  0
  8 31  1  0
 10 32  1  0
 12 33  1  0
 13 34  1  0
 14 35  1  0
 14 36  1  0
 16 37  1  0
 17 38  1  0
 20 39  1  0
 21 40  1  0
 21 41  1  0
 22 42  1  0
 22 43  1  0
 23 44  1  0
M  END
>  <Energy>  (115) 
-41.920380170354413

>  <compound_id>  (115) 
34652

>  <target_id>  (115) 
1

>  <reference_id>  (115) 
82

>  <inspiration_ids>  (115) 
[82, 54]

>  <energy_score>  (115) 
4.237012707229539

>  <distance_score>  (115) 
6.157788962087151

>  <path>  (115) 
/opt/xchem-fragalysis-2/maxwin/BulkDock/SCRATCH/511015/C34652-P82/C34652-P82.minimised.mol

>  <scratch_subdir>  (115) 
/opt/xchem-fragalysis-2/maxwin/BulkDock/SCRATCH/511015/C34652-P82

>  <fragmenstein_runtime>  (115) 
11.377315044403076

>  <fragmenstein_outcome>  (115) 
too moved

>  <fragmenstein_mode>  (115) 
expansion

>  <fragmenstein_error>  (115) 


$$$$
C34652-P54
     RDKit          3D

 44 46  0  0  0  0  0  0  0  0999 V2000
   -9.9291  -22.4286   29.0873 O   0  0  0  0  0  0  0  0  0  0  0  0
  -10.7011  -21.7930   28.5744 C   0  0  0  0  0  0  0  0  0  0  0  0
  -11.3908  -20.5272   29.0376 N   0  0  0  0  0  0  0  0  0  0  0  0
  -11.3263  -19.8463   30.2798 C   0  0  0  0  0  0  0  0  0  0  0  0
  -12.0071  -20.5412   31.4460 C   0  0  0  0  0  0  0  0  0  0  0  0
  -11.1311  -20.8397   32.6731 C   0  0  0  0  0  0  0  0  0  0  0  0
  -10.4630  -22.1778   32.7653 C   0  0  0  0  0  0  0  0  0  0  0  0
  -10.4336  -23.1164   31.7664 C   0  0  0  0  0  0  0  0  0  0  0  0
   -9.7496  -24.2750   31.8134 N   0  0  0  0  0  0  0  0  0  0  0  0
   -9.0918  -24.5115   32.9432 C   0  0  0  0  0  0  0  0  0  0  0  0
   -9.1474  -23.7573   34.0406 N   0  0  0  0  0  0  0  0  0  0  0  0
   -9.8154  -22.5919   33.9110 C   0  0  0  0  0  0  0  0  0  0  0  0
  -11.4336  -22.0057   27.2556 N   0  0  0  0  0  0  0  0  0  0  0  0
  -11.4137  -23.1001   26.3657 C   0  0  0  0  0  0  0  0  0  0  0  0
  -11.3988  -24.3806   27.1482 C   0  0  0  0  0  0  0  0  0  0  0  0
  -10.7226  -25.4338   26.5729 C   0  0  0  0  0  0  0  0  0  0  0  0
  -10.5563  -26.5850   27.2813 C   0  0  0  0  0  0  0  0  0  0  0  0
  -10.9918  -26.7354   28.5340 N   0  0  0  0  0  0  0  0  0  0  0  0
  -11.6322  -25.7225   29.1449 C   0  0  0  0  0  0  0  0  0  0  0  0
  -12.0341  -25.9506   30.5754 C   0  0  0  0  0  0  0  0  0  0  0  0
  -13.2472  -26.8063   30.8441 C   0  0  0  0  0  0  0  0  0  0  0  0
  -11.8878  -27.3194   31.2011 C   0  0  0  0  0  0  0  0  0  0  0  0
  -11.9194  -24.5616   28.4423 C   0  0  0  0  0  0  0  0  0  0  0  0
  -11.9710  -20.1676   28.2952 H   0  0  0  0  0  0  0  0  0  0  0  0
  -10.3880  -19.3608   30.4709 H   0  0  0  0  0  0  0  0  0  0  0  0
  -11.9642  -19.0328   30.0164 H   0  0  0  0  0  0  0  0  0  0  0  0
  -12.7877  -19.8508   31.7976 H   0  0  0  0  0  0  0  0  0  0  0  0
  -12.5369  -21.4308   31.0900 H   0  0  0  0  0  0  0  0  0  0  0  0
  -11.7792  -20.7473   33.5560 H   0  0  0  0  0  0  0  0  0  0  0  0
  -10.3710  -20.0508   32.7707 H   0  0  0  0  0  0  0  0  0  0  0  0
  -11.0226  -22.9948   30.8727 H   0  0  0  0  0  0  0  0  0  0  0  0
   -8.4639  -25.3871   32.9980 H   0  0  0  0  0  0  0  0  0  0  0  0
   -9.8166  -21.9807   34.8089 H   0  0  0  0  0  0  0  0  0  0  0  0
  -12.0052  -21.1960   27.0483 H   0  0  0  0  0  0  0  0  0  0  0  0
  -10.5157  -23.0057   25.7424 H   0  0  0  0  0  0  0  0  0  0  0  0
  -12.3004  -23.0409   25.7261 H   0  0  0  0  0  0  0  0  0  0  0  0
  -10.2849  -25.3330   25.6047 H   0  0  0  0  0  0  0  0  0  0  0  0
  -10.0324  -27.4450   26.8701 H   0  0  0  0  0  0  0  0  0  0  0  0
  -11.8097  -25.1508   31.2529 H   0  0  0  0  0  0  0  0  0  0  0  0
  -13.7561  -27.2233   29.9786 H   0  0  0  0  0  0  0  0  0  0  0  0
  -13.9176  -26.6866   31.6897 H   0  0  0  0  0  0  0  0  0  0  0  0
  -11.6393  -27.3842   32.2578 H   0  0  0  0  0  0  0  0  0  0  0  0
  -11.5014  -28.1476   30.6061 H   0  0  0  0  0  0  0  0  0  0  0  0
  -12.4754  -23.7672   28.9292 H   0  0  0  0  0  0  0  0  0  0  0  0
  1  2  2  0
  2  3  1  0
  3  4  1  0
  4  5  1  0
  5  6  1  0
  6  7  1  0
  7  8  2  0
  8  9  1  0
  9 10  2  0
 10 11  1  0
 11 12  2  0
  2 13  1  0
 13 14  1  0
 14 15  1  0
 15 16  2  0
 16 17  1  0
 17 18  2  0
 18 19  1  0
 19 20  1  0
 20 21  1  0
 21 22  1  0
 19 23  2  0
 12  7  1  0
 23 15  1  0
 22 20  1  0
  3 24  1  0
  4 25  1  0
  4 26  1  0
  5 27  1  0
  5 28  1  0
  6 29  1  0
  6 30  1  0
  8 31  1  0
 10 32  1  0
 12 33  1  0
 13 34  1  0
 14 35  1  0
 14 36  1  0
 16 37  1  0
 17 38  1  0
 20 39  1  0
 21 40  1  0
 21 41  1  0
 22 42  1  0
 22 43  1  0
 23 44  1  0
M  END
>  <Energy>  (116) 
-9.6558936235725383

>  <compound_id>  (116) 
34652

>  <target_id>  (116) 
1

>  <reference_id>  (116) 
54

>  <inspiration_ids>  (116) 
[82, 54]

>  <energy_score>  (116) 
40.871774689373595

>  <distance_score>  (116) 
3.300012988480822

>  <path>  (116) 
/opt/xchem-fragalysis-2/maxwin/BulkDock/SCRATCH/511015/C34652-P54/C34652-P54.minimised.mol

>  <scratch_subdir>  (116) 
/opt/xchem-fragalysis-2/maxwin/BulkDock/SCRATCH/511015/C34652-P54

>  <fragmenstein_runtime>  (116) 
6.44889497756958

>  <fragmenstein_outcome>  (116) 
too moved

>  <fragmenstein_mode>  (116) 
expansion

>  <fragmenstein_error>  (116) 


$$$$
C34653-P82
     RDKit          3D

 30 32  0  0  0  0  0  0  0  0999 V2000
  -11.1049  -25.5266   34.1709 O   0  0  0  0  0  0  0  0  0  0  0  0
  -10.8617  -25.3582   33.0212 C   0  0  0  0  0  0  0  0  0  0  0  0
  -11.4185  -24.4691   32.0778 N   0  0  0  0  0  0  0  0  0  0  0  0
  -12.4803  -23.5831   32.1696 C   0  0  0  0  0  0  0  0  0  0  0  0
  -12.5972  -23.2284   30.6754 C   0  0  0  0  0  0  0  0  0  0  0  0
  -12.5234  -24.2894   29.7179 C   0  0  0  0  0  0  0  0  0  0  0  0
  -12.1548  -24.0980   28.3883 C   0  0  0  0  0  0  0  0  0  0  0  0
  -11.8727  -22.8201   28.0052 C   0  0  0  0  0  0  0  0  0  0  0  0
  -11.9751  -21.8485   28.9822 C   0  0  0  0  0  0  0  0  0  0  0  0
  -12.2861  -21.9941   30.2832 N   0  0  0  0  0  0  0  0  0  0  0  0
  -12.6085  -22.5269   33.2147 C   0  0  0  0  0  0  0  0  0  0  0  0
  -13.6296  -23.6282   33.1060 C   0  0  0  0  0  0  0  0  0  0  0  0
   -9.9175  -26.1625   32.2161 C   0  0  0  0  0  0  0  0  0  0  0  0
  -10.4473  -27.0753   31.3258 C   0  0  0  0  0  0  0  0  0  0  0  0
  -10.5134  -26.9557   29.9815 N   0  0  0  0  0  0  0  0  0  0  0  0
   -9.8214  -25.9421   29.5027 C   0  0  0  0  0  0  0  0  0  0  0  0
   -9.1104  -25.1089   30.2691 N   0  0  0  0  0  0  0  0  0  0  0  0
   -9.0549  -25.3325   31.6124 C   0  0  0  0  0  0  0  0  0  0  0  0
  -10.9061  -24.5455   31.2095 H   0  0  0  0  0  0  0  0  0  0  0  0
  -12.7194  -25.2984   30.0572 H   0  0  0  0  0  0  0  0  0  0  0  0
  -12.1383  -24.9232   27.6882 H   0  0  0  0  0  0  0  0  0  0  0  0
  -11.6588  -22.5603   26.9782 H   0  0  0  0  0  0  0  0  0  0  0  0
  -11.9040  -20.8219   28.7304 H   0  0  0  0  0  0  0  0  0  0  0  0
  -12.9075  -21.5314   32.9208 H   0  0  0  0  0  0  0  0  0  0  0  0
  -11.9274  -22.5651   34.0498 H   0  0  0  0  0  0  0  0  0  0  0  0
  -13.6323  -24.3754   33.8893 H   0  0  0  0  0  0  0  0  0  0  0  0
  -14.6104  -23.3877   32.7146 H   0  0  0  0  0  0  0  0  0  0  0  0
  -10.7610  -28.0406   31.7014 H   0  0  0  0  0  0  0  0  0  0  0  0
   -9.8087  -25.7828   28.4336 H   0  0  0  0  0  0  0  0  0  0  0  0
   -8.5684  -24.6034   32.2468 H   0  0  0  0  0  0  0  0  0  0  0  0
  1  2  2  0
  2  3  1  0
  3  4  1  0
  4  5  1  0
  5  6  2  0
  6  7  1  0
  7  8  2  0
  8  9  1  0
  9 10  2  0
  4 11  1  0
 11 12  1  0
  2 13  1  0
 13 14  2  0
 14 15  1  0
 15 16  2  0
 16 17  1  0
 17 18  2  0
 12  4  1  0
 18 13  1  0
 10  5  1  0
  3 19  1  0
  6 20  1  0
  7 21  1  0
  8 22  1  0
  9 23  1  0
 11 24  1  0
 11 25  1  0
 12 26  1  0
 12 27  1  0
 14 28  1  0
 16 29  1  0
 18 30  1  0
M  END
>  <Energy>  (117) 
110.16414563772398

>  <compound_id>  (117) 
34653

>  <target_id>  (117) 
1

>  <reference_id>  (117) 
82

>  <inspiration_ids>  (117) 
[82, 54]

>  <energy_score>  (117) 
64.3283800081469

>  <distance_score>  (117) 
2.8142121403160276

>  <path>  (117) 
/opt/xchem-fragalysis-2/maxwin/BulkDock/SCRATCH/511015/C34653-P82/C34653-P82.minimised.mol

>  <scratch_subdir>  (117) 
/opt/xchem-fragalysis-2/maxwin/BulkDock/SCRATCH/511015/C34653-P82

>  <fragmenstein_runtime>  (117) 
4.358827352523804

>  <fragmenstein_outcome>  (117) 
too moved

>  <fragmenstein_mode>  (117) 
expansion

>  <fragmenstein_error>  (117) 


$$$$
C34653-P54
     RDKit          3D

 30 32  0  0  0  0  0  0  0  0999 V2000
   -9.2385  -25.0638   31.9971 O   0  0  0  0  0  0  0  0  0  0  0  0
  -10.3531  -24.9435   31.7264 C   0  0  0  0  0  0  0  0  0  0  0  0
  -11.1597  -23.7008   31.4163 N   0  0  0  0  0  0  0  0  0  0  0  0
  -10.7632  -22.3792   31.2818 C   0  0  0  0  0  0  0  0  0  0  0  0
  -10.8748  -22.1894   29.7681 C   0  0  0  0  0  0  0  0  0  0  0  0
  -12.1355  -22.4894   29.2153 C   0  0  0  0  0  0  0  0  0  0  0  0
  -12.2575  -23.1381   27.9838 C   0  0  0  0  0  0  0  0  0  0  0  0
  -11.1487  -23.2733   27.2010 C   0  0  0  0  0  0  0  0  0  0  0  0
   -9.9778  -22.8024   27.7368 C   0  0  0  0  0  0  0  0  0  0  0  0
   -9.7989  -22.3188   28.9848 N   0  0  0  0  0  0  0  0  0  0  0  0
  -10.9887  -21.2351   32.2157 C   0  0  0  0  0  0  0  0  0  0  0  0
   -9.6900  -21.9801   32.2501 C   0  0  0  0  0  0  0  0  0  0  0  0
  -11.2535  -26.0831   31.5188 C   0  0  0  0  0  0  0  0  0  0  0  0
  -11.9237  -26.1877   30.3214 C   0  0  0  0  0  0  0  0  0  0  0  0
  -12.8733  -27.1009   30.1045 N   0  0  0  0  0  0  0  0  0  0  0  0
  -13.0702  -27.9737   31.1056 C   0  0  0  0  0  0  0  0  0  0  0  0
  -12.4374  -27.9816   32.2910 N   0  0  0  0  0  0  0  0  0  0  0  0
  -11.5115  -27.0351   32.4673 C   0  0  0  0  0  0  0  0  0  0  0  0
  -12.0922  -23.9657   31.1403 H   0  0  0  0  0  0  0  0  0  0  0  0
  -13.0094  -22.3733   29.8453 H   0  0  0  0  0  0  0  0  0  0  0  0
  -13.2097  -23.5199   27.6293 H   0  0  0  0  0  0  0  0  0  0  0  0
  -11.1875  -23.6964   26.2068 H   0  0  0  0  0  0  0  0  0  0  0  0
   -9.0894  -22.8234   27.1402 H   0  0  0  0  0  0  0  0  0  0  0  0
  -11.6624  -21.3622   33.0526 H   0  0  0  0  0  0  0  0  0  0  0  0
  -10.9747  -20.2258   31.8220 H   0  0  0  0  0  0  0  0  0  0  0  0
   -8.7634  -21.6305   31.8495 H   0  0  0  0  0  0  0  0  0  0  0  0
   -9.5127  -22.5896   33.1331 H   0  0  0  0  0  0  0  0  0  0  0  0
  -11.7168  -25.5282   29.4847 H   0  0  0  0  0  0  0  0  0  0  0  0
  -13.8138  -28.7485   30.9443 H   0  0  0  0  0  0  0  0  0  0  0  0
  -10.9554  -27.0934   33.3926 H   0  0  0  0  0  0  0  0  0  0  0  0
  1  2  2  0
  2  3  1  0
  3  4  1  0
  4  5  1  0
  5  6  2  0
  6  7  1  0
  7  8  2  0
  8  9  1  0
  9 10  2  0
  4 11  1  0
 11 12  1  0
  2 13  1  0
 13 14  2  0
 14 15  1  0
 15 16  2  0
 16 17  1  0
 17 18  2  0
 12  4  1  0
 18 13  1  0
 10  5  1  0
  3 19  1  0
  6 20  1  0
  7 21  1  0
  8 22  1  0
  9 23  1  0
 11 24  1  0
 11 25  1  0
 12 26  1  0
 12 27  1  0
 14 28  1  0
 16 29  1  0
 18 30  1  0
M  END
>  <Energy>  (118) 
73.397624592762611

>  <compound_id>  (118) 
34653

>  <target_id>  (118) 
1

>  <reference_id>  (118) 
54

>  <inspiration_ids>  (118) 
[82, 54]

>  <energy_score>  (118) 
23.250075992297468

>  <distance_score>  (118) 
2.2433265899193047

>  <path>  (118) 
/opt/xchem-fragalysis-2/maxwin/BulkDock/SCRATCH/511015/C34653-P54/C34653-P54.minimised.mol

>  <scratch_subdir>  (118) 
/opt/xchem-fragalysis-2/maxwin/BulkDock/SCRATCH/511015/C34653-P54

>  <fragmenstein_runtime>  (118) 
4.195429086685181

>  <fragmenstein_outcome>  (118) 
too moved

>  <fragmenstein_mode>  (118) 
expansion

>  <fragmenstein_error>  (118) 


$$$$
C34654-P82
     RDKit          3D

 32 34  0  0  0  0  0  0  0  0999 V2000
   -9.0995  -24.9820   29.5850 O   0  0  0  0  0  0  0  0  0  0  0  0
  -10.2117  -25.3369   29.2681 C   0  0  0  0  0  0  0  0  0  0  0  0
  -10.7872  -26.5079   29.6273 O   0  0  0  0  0  0  0  0  0  0  0  0
  -10.2736  -26.9040   30.8896 C   0  0  0  0  0  0  0  0  0  0  0  0
  -10.7715  -25.9285   31.8862 C   0  0  0  0  0  0  0  0  0  0  0  0
  -11.9958  -25.3277   31.7550 C   0  0  0  0  0  0  0  0  0  0  0  0
  -12.5975  -24.5999   32.6899 N   0  0  0  0  0  0  0  0  0  0  0  0
  -11.9086  -24.4907   33.7985 C   0  0  0  0  0  0  0  0  0  0  0  0
  -10.7178  -25.0420   34.0334 N   0  0  0  0  0  0  0  0  0  0  0  0
  -10.1102  -25.6315   33.0221 C   0  0  0  0  0  0  0  0  0  0  0  0
  -11.1040  -24.6208   28.3854 C   0  0  0  0  0  0  0  0  0  0  0  0
  -11.3354  -25.3595   27.2134 C   0  0  0  0  0  0  0  0  0  0  0  0
  -12.0126  -24.7904   26.1728 C   0  0  0  0  0  0  0  0  0  0  0  0
  -12.3912  -23.4897   26.3297 C   0  0  0  0  0  0  0  0  0  0  0  0
  -12.2184  -22.7838   27.4678 N   0  0  0  0  0  0  0  0  0  0  0  0
  -11.6126  -23.3272   28.5541 C   0  0  0  0  0  0  0  0  0  0  0  0
  -11.6713  -22.3253   29.7151 C   0  0  0  0  0  0  0  0  0  0  0  0
  -11.4867  -22.3603   31.2074 C   0  0  0  0  0  0  0  0  0  0  0  0
  -12.8378  -22.5321   30.6714 C   0  0  0  0  0  0  0  0  0  0  0  0
  -10.6613  -27.8971   31.1207 H   0  0  0  0  0  0  0  0  0  0  0  0
   -9.1961  -27.0047   30.8947 H   0  0  0  0  0  0  0  0  0  0  0  0
  -12.5675  -25.4390   30.8422 H   0  0  0  0  0  0  0  0  0  0  0  0
  -12.3205  -23.8552   34.5571 H   0  0  0  0  0  0  0  0  0  0  0  0
   -9.0653  -25.8605   33.1705 H   0  0  0  0  0  0  0  0  0  0  0  0
  -10.9478  -26.3691   27.1010 H   0  0  0  0  0  0  0  0  0  0  0  0
  -12.1987  -25.3321   25.2609 H   0  0  0  0  0  0  0  0  0  0  0  0
  -12.8631  -22.9699   25.5033 H   0  0  0  0  0  0  0  0  0  0  0  0
  -11.5509  -21.3143   29.3305 H   0  0  0  0  0  0  0  0  0  0  0  0
  -11.2920  -21.4288   31.7314 H   0  0  0  0  0  0  0  0  0  0  0  0
  -10.9481  -23.1777   31.6433 H   0  0  0  0  0  0  0  0  0  0  0  0
  -13.3231  -23.4921   30.7123 H   0  0  0  0  0  0  0  0  0  0  0  0
  -13.5699  -21.7754   30.8825 H   0  0  0  0  0  0  0  0  0  0  0  0
  1  2  2  0
  2  3  1  0
  3  4  1  0
  4  5  1  0
  5  6  2  0
  6  7  1  0
  7  8  2  0
  8  9  1  0
  9 10  2  0
  2 11  1  0
 11 12  2  0
 12 13  1  0
 13 14  2  0
 14 15  1  0
 15 16  2  0
 16 17  1  0
 17 18  1  0
 18 19  1  0
 10  5  1  0
 16 11  1  0
 19 17  1  0
  4 20  1  0
  4 21  1  0
  6 22  1  0
  8 23  1  0
 10 24  1  0
 12 25  1  0
 13 26  1  0
 14 27  1  0
 17 28  1  0
 18 29  1  0
 18 30  1  0
 19 31  1  0
 19 32  1  0
M  END
>  <Energy>  (119) 
79.553772227580936

>  <compound_id>  (119) 
34654

>  <target_id>  (119) 
1

>  <reference_id>  (119) 
82

>  <inspiration_ids>  (119) 
[82, 54]

>  <energy_score>  (119) 
25.889352624038906

>  <distance_score>  (119) 
2.8079170099423347

>  <path>  (119) 
/opt/xchem-fragalysis-2/maxwin/BulkDock/SCRATCH/511015/C34654-P82/C34654-P82.minimised.mol

>  <scratch_subdir>  (119) 
/opt/xchem-fragalysis-2/maxwin/BulkDock/SCRATCH/511015/C34654-P82

>  <fragmenstein_runtime>  (119) 
3.166210651397705

>  <fragmenstein_outcome>  (119) 
too moved

>  <fragmenstein_mode>  (119) 
expansion

>  <fragmenstein_error>  (119) 


$$$$
C34654-P54
     RDKit          3D

 32 34  0  0  0  0  0  0  0  0999 V2000
   -8.3331  -22.6884   31.3251 O   0  0  0  0  0  0  0  0  0  0  0  0
   -9.0276  -23.3545   30.5931 C   0  0  0  0  0  0  0  0  0  0  0  0
   -9.2629  -24.6623   30.7275 O   0  0  0  0  0  0  0  0  0  0  0  0
   -9.9690  -24.9052   31.9251 C   0  0  0  0  0  0  0  0  0  0  0  0
  -11.1174  -25.7829   31.5378 C   0  0  0  0  0  0  0  0  0  0  0  0
  -11.8891  -25.5711   30.4176 C   0  0  0  0  0  0  0  0  0  0  0  0
  -12.9382  -26.3341   30.0835 N   0  0  0  0  0  0  0  0  0  0  0  0
  -13.1959  -27.3626   30.8981 C   0  0  0  0  0  0  0  0  0  0  0  0
  -12.5428  -27.6482   32.0288 N   0  0  0  0  0  0  0  0  0  0  0  0
  -11.5108  -26.8535   32.3182 C   0  0  0  0  0  0  0  0  0  0  0  0
   -9.8456  -22.9162   29.4725 C   0  0  0  0  0  0  0  0  0  0  0  0
   -9.7338  -23.5802   28.2451 C   0  0  0  0  0  0  0  0  0  0  0  0
  -10.6051  -23.2669   27.2230 C   0  0  0  0  0  0  0  0  0  0  0  0
  -11.5385  -22.2913   27.4768 C   0  0  0  0  0  0  0  0  0  0  0  0
  -11.7091  -21.6903   28.6797 N   0  0  0  0  0  0  0  0  0  0  0  0
  -10.8925  -22.0326   29.7106 C   0  0  0  0  0  0  0  0  0  0  0  0
  -11.4170  -21.7061   31.0854 C   0  0  0  0  0  0  0  0  0  0  0  0
  -11.4842  -20.2930   31.5862 C   0  0  0  0  0  0  0  0  0  0  0  0
  -10.6687  -21.3094   32.3279 C   0  0  0  0  0  0  0  0  0  0  0  0
  -10.3323  -23.9844   32.3883 H   0  0  0  0  0  0  0  0  0  0  0  0
   -9.3044  -25.3776   32.6540 H   0  0  0  0  0  0  0  0  0  0  0  0
  -11.7249  -24.7536   29.7328 H   0  0  0  0  0  0  0  0  0  0  0  0
  -14.0219  -28.0122   30.6278 H   0  0  0  0  0  0  0  0  0  0  0  0
  -10.9805  -27.1306   33.2253 H   0  0  0  0  0  0  0  0  0  0  0  0
   -8.9889  -24.3597   28.1153 H   0  0  0  0  0  0  0  0  0  0  0  0
  -10.5533  -23.7465   26.2535 H   0  0  0  0  0  0  0  0  0  0  0  0
  -12.2192  -21.9871   26.6901 H   0  0  0  0  0  0  0  0  0  0  0  0
  -12.3094  -22.2761   31.2681 H   0  0  0  0  0  0  0  0  0  0  0  0
  -12.4109  -19.9634   32.0435 H   0  0  0  0  0  0  0  0  0  0  0  0
  -10.9728  -19.5188   31.0297 H   0  0  0  0  0  0  0  0  0  0  0  0
  -11.0584  -21.6425   33.2859 H   0  0  0  0  0  0  0  0  0  0  0  0
   -9.6067  -21.1283   32.3667 H   0  0  0  0  0  0  0  0  0  0  0  0
  1  2  2  0
  2  3  1  0
  3  4  1  0
  4  5  1  0
  5  6  2  0
  6  7  1  0
  7  8  2  0
  8  9  1  0
  9 10  2  0
  2 11  1  0
 11 12  2  0
 12 13  1  0
 13 14  2  0
 14 15  1  0
 15 16  2  0
 16 17  1  0
 17 18  1  0
 18 19  1  0
 10  5  1  0
 16 11  1  0
 19 17  1  0
  4 20  1  0
  4 21  1  0
  6 22  1  0
  8 23  1  0
 10 24  1  0
 12 25  1  0
 13 26  1  0
 14 27  1  0
 17 28  1  0
 18 29  1  0
 18 30  1  0
 19 31  1  0
 19 32  1  0
M  END
>  <Energy>  (120) 
56.71681933808064

>  <compound_id>  (120) 
34654

>  <target_id>  (120) 
1

>  <reference_id>  (120) 
54

>  <inspiration_ids>  (120) 
[82, 54]

>  <energy_score>  (120) 
3.0523997345394207

>  <distance_score>  (120) 
2.3485875405268586

>  <path>  (120) 
/opt/xchem-fragalysis-2/maxwin/BulkDock/SCRATCH/511015/C34654-P54/C34654-P54.minimised.mol

>  <scratch_subdir>  (120) 
/opt/xchem-fragalysis-2/maxwin/BulkDock/SCRATCH/511015/C34654-P54

>  <fragmenstein_runtime>  (120) 
3.0141992568969727

>  <fragmenstein_outcome>  (120) 
too moved

>  <fragmenstein_mode>  (120) 
expansion

>  <fragmenstein_error>  (120) 


$$$$
C34655-P82
     RDKit          3D

 40 42  0  0  0  0  0  0  0  0999 V2000
  -13.0895  -29.4394   28.5909 O   0  0  0  0  0  0  0  0  0  0  0  0
  -13.6936  -29.1145   27.6132 C   0  0  0  0  0  0  0  0  0  0  0  0
  -14.9749  -29.4991   27.1438 N   0  0  0  0  0  0  0  0  0  0  0  0
  -15.9881  -30.3248   27.7399 C   0  0  0  0  0  0  0  0  0  0  0  0
  -16.4199  -29.7363   29.0449 C   0  0  0  0  0  0  0  0  0  0  0  0
  -17.3122  -28.6867   29.1217 C   0  0  0  0  0  0  0  0  0  0  0  0
  -17.6696  -28.0910   30.2709 N   0  0  0  0  0  0  0  0  0  0  0  0
  -17.0949  -28.5769   31.3843 C   0  0  0  0  0  0  0  0  0  0  0  0
  -16.2355  -29.6087   31.4425 N   0  0  0  0  0  0  0  0  0  0  0  0
  -15.9038  -30.1537   30.2575 C   0  0  0  0  0  0  0  0  0  0  0  0
  -13.0629  -28.0120   26.7190 C   0  0  0  0  0  0  0  0  0  0  0  0
  -13.4553  -27.8693   25.6008 O   0  0  0  0  0  0  0  0  0  0  0  0
  -12.1251  -27.2623   27.4786 N   0  0  0  0  0  0  0  0  0  0  0  0
  -11.2895  -26.1616   27.1152 C   0  0  0  0  0  0  0  0  0  0  0  0
  -11.5330  -24.9491   27.9617 C   0  0  0  0  0  0  0  0  0  0  0  0
  -11.5793  -23.7078   27.3490 C   0  0  0  0  0  0  0  0  0  0  0  0
  -11.7112  -22.5888   28.1429 C   0  0  0  0  0  0  0  0  0  0  0  0
  -11.8500  -22.6033   29.4817 N   0  0  0  0  0  0  0  0  0  0  0  0
  -11.8797  -23.8146   30.0893 C   0  0  0  0  0  0  0  0  0  0  0  0
  -12.2155  -23.8806   31.5572 C   0  0  0  0  0  0  0  0  0  0  0  0
  -11.1397  -24.1597   32.5746 C   0  0  0  0  0  0  0  0  0  0  0  0
  -11.7798  -22.8032   32.5146 C   0  0  0  0  0  0  0  0  0  0  0  0
  -11.6690  -24.9912   29.3567 C   0  0  0  0  0  0  0  0  0  0  0  0
  -15.1305  -29.0817   26.2258 H   0  0  0  0  0  0  0  0  0  0  0  0
  -15.5687  -31.3258   27.8862 H   0  0  0  0  0  0  0  0  0  0  0  0
  -16.8294  -30.4042   27.0440 H   0  0  0  0  0  0  0  0  0  0  0  0
  -17.7815  -28.2740   28.2331 H   0  0  0  0  0  0  0  0  0  0  0  0
  -17.3448  -28.0870   32.3192 H   0  0  0  0  0  0  0  0  0  0  0  0
  -15.1758  -30.9588   30.3149 H   0  0  0  0  0  0  0  0  0  0  0  0
  -12.0999  -27.6283   28.4283 H   0  0  0  0  0  0  0  0  0  0  0  0
  -11.4581  -25.9490   26.0538 H   0  0  0  0  0  0  0  0  0  0  0  0
  -10.2493  -26.4662   27.2405 H   0  0  0  0  0  0  0  0  0  0  0  0
  -11.5085  -23.5969   26.2729 H   0  0  0  0  0  0  0  0  0  0  0  0
  -11.7200  -21.6122   27.6872 H   0  0  0  0  0  0  0  0  0  0  0  0
  -13.2060  -24.2759   31.7644 H   0  0  0  0  0  0  0  0  0  0  0  0
  -10.1157  -24.2612   32.2376 H   0  0  0  0  0  0  0  0  0  0  0  0
  -11.4004  -24.8086   33.4037 H   0  0  0  0  0  0  0  0  0  0  0  0
  -11.2253  -21.9644   32.1162 H   0  0  0  0  0  0  0  0  0  0  0  0
  -12.4663  -22.5340   33.3093 H   0  0  0  0  0  0  0  0  0  0  0  0
  -11.6573  -25.9333   29.8953 H   0  0  0  0  0  0  0  0  0  0  0  0
  1  2  2  0
  2  3  1  0
  3  4  1  0
  4  5  1  0
  5  6  2  0
  6  7  1  0
  7  8  2  0
  8  9  1  0
  9 10  2  0
  2 11  1  0
 11 12  2  0
 11 13  1  0
 13 14  1  0
 14 15  1  0
 15 16  2  0
 16 17  1  0
 17 18  2  0
 18 19  1  0
 19 20  1  0
 20 21  1  0
 21 22  1  0
 19 23  2  0
 10  5  1  0
 23 15  1  0
 22 20  1  0
  3 24  1  0
  4 25  1  0
  4 26  1  0
  6 27  1  0
  8 28  1  0
 10 29  1  0
 13 30  1  0
 14 31  1  0
 14 32  1  0
 16 33  1  0
 17 34  1  0
 20 35  1  0
 21 36  1  0
 21 37  1  0
 22 38  1  0
 22 39  1  0
 23 40  1  0
M  END
>  <Energy>  (121) 
31.912403572436922

>  <compound_id>  (121) 
34655

>  <target_id>  (121) 
1

>  <reference_id>  (121) 
82

>  <inspiration_ids>  (121) 
[82, 54]

>  <energy_score>  (121) 
-14.60539985276209

>  <distance_score>  (121) 
4.699529290130174

>  <path>  (121) 
/opt/xchem-fragalysis-2/maxwin/BulkDock/SCRATCH/511015/C34655-P82/C34655-P82.minimised.mol

>  <scratch_subdir>  (121) 
/opt/xchem-fragalysis-2/maxwin/BulkDock/SCRATCH/511015/C34655-P82

>  <fragmenstein_runtime>  (121) 
7.466273307800293

>  <fragmenstein_outcome>  (121) 
too moved

>  <fragmenstein_mode>  (121) 
expansion

>  <fragmenstein_error>  (121) 


$$$$
C34655-P54
     RDKit          3D

 40 42  0  0  0  0  0  0  0  0999 V2000
  -14.2513  -27.5694   26.4517 O   0  0  0  0  0  0  0  0  0  0  0  0
  -13.4868  -26.9727   27.1404 C   0  0  0  0  0  0  0  0  0  0  0  0
  -13.5346  -26.6563   28.5335 N   0  0  0  0  0  0  0  0  0  0  0  0
  -14.4691  -27.0392   29.5542 C   0  0  0  0  0  0  0  0  0  0  0  0
  -13.7734  -27.4180   30.8247 C   0  0  0  0  0  0  0  0  0  0  0  0
  -14.4498  -27.4693   32.0258 C   0  0  0  0  0  0  0  0  0  0  0  0
  -13.8865  -27.8585   33.1869 N   0  0  0  0  0  0  0  0  0  0  0  0
  -12.5974  -28.2185   33.1240 C   0  0  0  0  0  0  0  0  0  0  0  0
  -11.8273  -28.1663   32.0358 N   0  0  0  0  0  0  0  0  0  0  0  0
  -12.4491  -27.8117   30.8993 C   0  0  0  0  0  0  0  0  0  0  0  0
  -12.1158  -26.4798   26.5854 C   0  0  0  0  0  0  0  0  0  0  0  0
  -11.3968  -27.2548   26.0414 O   0  0  0  0  0  0  0  0  0  0  0  0
  -11.9200  -25.1146   26.9312 N   0  0  0  0  0  0  0  0  0  0  0  0
  -10.7704  -24.2772   26.8194 C   0  0  0  0  0  0  0  0  0  0  0  0
  -10.7126  -23.3290   27.9714 C   0  0  0  0  0  0  0  0  0  0  0  0
  -11.2949  -22.0726   27.8598 C   0  0  0  0  0  0  0  0  0  0  0  0
  -11.2422  -21.2302   28.9468 C   0  0  0  0  0  0  0  0  0  0  0  0
  -10.6820  -21.5678   30.1210 N   0  0  0  0  0  0  0  0  0  0  0  0
  -10.0694  -22.7710   30.2339 C   0  0  0  0  0  0  0  0  0  0  0  0
   -9.2479  -23.0237   31.4720 C   0  0  0  0  0  0  0  0  0  0  0  0
   -9.8753  -22.8571   32.8306 C   0  0  0  0  0  0  0  0  0  0  0  0
   -9.4716  -24.2223   32.3492 C   0  0  0  0  0  0  0  0  0  0  0  0
  -10.0908  -23.6768   29.1754 C   0  0  0  0  0  0  0  0  0  0  0  0
  -12.6650  -26.2033   28.8003 H   0  0  0  0  0  0  0  0  0  0  0  0
  -15.1207  -26.1753   29.7219 H   0  0  0  0  0  0  0  0  0  0  0  0
  -15.0744  -27.8731   29.1846 H   0  0  0  0  0  0  0  0  0  0  0  0
  -15.5022  -27.2036   32.0993 H   0  0  0  0  0  0  0  0  0  0  0  0
  -12.1349  -28.5867   34.0327 H   0  0  0  0  0  0  0  0  0  0  0  0
  -11.8143  -27.8813   30.0196 H   0  0  0  0  0  0  0  0  0  0  0  0
  -12.7844  -24.7428   27.3137 H   0  0  0  0  0  0  0  0  0  0  0  0
  -10.8105  -23.7423   25.8666 H   0  0  0  0  0  0  0  0  0  0  0  0
   -9.8937  -24.9288   26.8028 H   0  0  0  0  0  0  0  0  0  0  0  0
  -11.7542  -21.7438   26.9340 H   0  0  0  0  0  0  0  0  0  0  0  0
  -11.6315  -20.2194   28.9012 H   0  0  0  0  0  0  0  0  0  0  0  0
   -8.2238  -22.6748   31.4016 H   0  0  0  0  0  0  0  0  0  0  0  0
   -9.2775  -22.3830   33.6009 H   0  0  0  0  0  0  0  0  0  0  0  0
  -10.9217  -22.5787   32.8611 H   0  0  0  0  0  0  0  0  0  0  0  0
   -8.6037  -24.6783   32.8137 H   0  0  0  0  0  0  0  0  0  0  0  0
  -10.2278  -24.9315   32.0426 H   0  0  0  0  0  0  0  0  0  0  0  0
   -9.5785  -24.6269   29.2795 H   0  0  0  0  0  0  0  0  0  0  0  0
  1  2  2  0
  2  3  1  0
  3  4  1  0
  4  5  1  0
  5  6  2  0
  6  7  1  0
  7  8  2  0
  8  9  1  0
  9 10  2  0
  2 11  1  0
 11 12  2  0
 11 13  1  0
 13 14  1  0
 14 15  1  0
 15 16  2  0
 16 17  1  0
 17 18  2  0
 18 19  1  0
 19 20  1  0
 20 21  1  0
 21 22  1  0
 19 23  2  0
 10  5  1  0
 23 15  1  0
 22 20  1  0
  3 24  1  0
  4 25  1  0
  4 26  1  0
  6 27  1  0
  8 28  1  0
 10 29  1  0
 13 30  1  0
 14 31  1  0
 14 32  1  0
 16 33  1  0
 17 34  1  0
 20 35  1  0
 21 36  1  0
 21 37  1  0
 22 38  1  0
 22 39  1  0
 23 40  1  0
M  END
>  <Energy>  (122) 
42.673793842546637

>  <compound_id>  (122) 
34655

>  <target_id>  (122) 
1

>  <reference_id>  (122) 
54

>  <inspiration_ids>  (122) 
[82, 54]

>  <energy_score>  (122) 
-3.844009582650962

>  <distance_score>  (122) 
2.8039721562779354

>  <path>  (122) 
/opt/xchem-fragalysis-2/maxwin/BulkDock/SCRATCH/511015/C34655-P54/C34655-P54.minimised.mol

>  <scratch_subdir>  (122) 
/opt/xchem-fragalysis-2/maxwin/BulkDock/SCRATCH/511015/C34655-P54

>  <fragmenstein_runtime>  (122) 
7.348790645599365

>  <fragmenstein_outcome>  (122) 
too moved

>  <fragmenstein_mode>  (122) 
expansion

>  <fragmenstein_error>  (122) 


$$$$
C34656-P82
     RDKit          3D

 42 43  0  0  0  0  0  0  0  0999 V2000
  -10.7535  -24.6742   28.1143 C   0  0  0  0  0  0  0  0  0  0  0  0
  -11.9138  -24.1917   27.3452 N   0  0  0  0  0  0  0  0  0  0  0  0
  -11.9317  -23.1319   28.4542 C   0  0  0  0  0  0  0  0  0  0  0  0
  -11.7265  -23.0893   30.0263 C   0  0  0  0  0  0  0  0  0  0  0  0
  -12.5925  -23.8059   31.0034 N   0  0  0  0  0  0  0  0  0  0  0  0
  -12.4998  -23.9050   32.7406 C   0  0  0  0  0  0  0  0  0  0  0  0
  -11.7011  -23.3071   33.6268 O   0  0  0  0  0  0  0  0  0  0  0  0
  -13.2440  -24.7085   33.3205 C   0  0  0  0  0  0  0  0  0  0  0  0
  -11.6121  -25.2149   32.8418 C   0  0  0  0  0  0  0  0  0  0  0  0
  -10.4794  -24.0120   32.2643 C   0  0  0  0  0  0  0  0  0  0  0  0
  -10.9547  -22.3388   32.1385 N   0  0  0  0  0  0  0  0  0  0  0  0
  -12.5563  -21.8641   32.5687 C   0  0  0  0  0  0  0  0  0  0  0  0
  -13.7392  -23.0385   33.1568 C   0  0  0  0  0  0  0  0  0  0  0  0
  -12.7969  -25.2643   27.0751 C   0  0  0  0  0  0  0  0  0  0  0  0
  -13.7375  -25.6779   27.6950 O   0  0  0  0  0  0  0  0  0  0  0  0
  -12.4648  -25.8485   25.7174 C   0  0  0  0  0  0  0  0  0  0  0  0
  -11.8159  -27.2176   25.7797 C   0  0  0  0  0  0  0  0  0  0  0  0
  -12.5848  -28.1978   26.5953 C   0  0  0  0  0  0  0  0  0  0  0  0
  -13.5376  -29.0360   26.0682 C   0  0  0  0  0  0  0  0  0  0  0  0
  -14.2649  -29.8908   26.8088 N   0  0  0  0  0  0  0  0  0  0  0  0
  -14.0144  -29.8978   28.1242 C   0  0  0  0  0  0  0  0  0  0  0  0
  -13.1286  -29.1187   28.7570 N   0  0  0  0  0  0  0  0  0  0  0  0
  -12.4396  -28.2773   27.9627 C   0  0  0  0  0  0  0  0  0  0  0  0
   -9.9170  -23.9765   28.1363 H   0  0  0  0  0  0  0  0  0  0  0  0
  -11.0094  -25.2030   29.0428 H   0  0  0  0  0  0  0  0  0  0  0  0
  -10.3293  -25.4917   27.5172 H   0  0  0  0  0  0  0  0  0  0  0  0
  -12.9003  -22.6772   28.2866 H   0  0  0  0  0  0  0  0  0  0  0  0
  -11.2554  -22.3492   28.0629 H   0  0  0  0  0  0  0  0  0  0  0  0
  -11.7830  -22.0142   30.2160 H   0  0  0  0  0  0  0  0  0  0  0  0
  -10.7415  -23.4951   30.1439 H   0  0  0  0  0  0  0  0  0  0  0  0
  -13.3929  -24.3499   30.6675 H   0  0  0  0  0  0  0  0  0  0  0  0
  -11.2136  -26.2090   32.9904 H   0  0  0  0  0  0  0  0  0  0  0  0
   -9.4376  -24.2209   32.0841 H   0  0  0  0  0  0  0  0  0  0  0  0
  -12.6350  -20.8166   32.7654 H   0  0  0  0  0  0  0  0  0  0  0  0
  -14.6889  -22.7057   33.5642 H   0  0  0  0  0  0  0  0  0  0  0  0
  -13.4041  -25.8898   25.1521 H   0  0  0  0  0  0  0  0  0  0  0  0
  -11.7939  -25.1643   25.1873 H   0  0  0  0  0  0  0  0  0  0  0  0
  -11.7099  -27.6131   24.7633 H   0  0  0  0  0  0  0  0  0  0  0  0
  -10.7959  -27.1449   26.1680 H   0  0  0  0  0  0  0  0  0  0  0  0
  -13.7629  -29.0517   25.0054 H   0  0  0  0  0  0  0  0  0  0  0  0
  -14.5877  -30.5916   28.7295 H   0  0  0  0  0  0  0  0  0  0  0  0
  -11.7633  -27.6175   28.5000 H   0  0  0  0  0  0  0  0  0  0  0  0
  1  2  1  0
  2  3  1  0
  3  4  1  0
  4  5  1  0
  5  6  1  0
  6  7  2  0
  6  8  1  0
  8  9  2  0
  9 10  1  0
 10 11  2  0
 11 12  1  0
 12 13  2  0
  2 14  1  0
 14 15  2  0
 14 16  1  0
 16 17  1  0
 17 18  1  0
 18 19  2  0
 19 20  1  0
 20 21  2  0
 21 22  1  0
 22 23  2  0
 13  8  1  0
 23 18  1  0
  1 24  1  0
  1 25  1  0
  1 26  1  0
  3 27  1  0
  3 28  1  0
  4 29  1  0
  4 30  1  0
  5 31  1  0
  9 32  1  0
 10 33  1  0
 12 34  1  0
 13 35  1  0
 16 36  1  0
 16 37  1  0
 17 38  1  0
 17 39  1  0
 19 40  1  0
 21 41  1  0
 23 42  1  0
M  END
>  <Energy>  (123) 
799.47137509055256

>  <compound_id>  (123) 
34656

>  <target_id>  (123) 
1

>  <reference_id>  (123) 
82

>  <inspiration_ids>  (123) 
[82, 54]

>  <energy_score>  (123) 
784.4468744194536

>  <distance_score>  (123) 
4.439920959193353

>  <path>  (123) 
/opt/xchem-fragalysis-2/maxwin/BulkDock/SCRATCH/511015/C34656-P82/C34656-P82.minimised.mol

>  <scratch_subdir>  (123) 
/opt/xchem-fragalysis-2/maxwin/BulkDock/SCRATCH/511015/C34656-P82

>  <fragmenstein_runtime>  (123) 
7.939798355102539

>  <fragmenstein_outcome>  (123) 
too moved

>  <fragmenstein_mode>  (123) 
expansion

>  <fragmenstein_error>  (123) 


$$$$
C34656-P54
     RDKit          3D

 42 43  0  0  0  0  0  0  0  0999 V2000
  -10.4233  -23.4685   28.4629 C   0  0  0  0  0  0  0  0  0  0  0  0
  -11.6153  -22.7837   27.8398 N   0  0  0  0  0  0  0  0  0  0  0  0
  -11.2517  -21.7124   28.8468 C   0  0  0  0  0  0  0  0  0  0  0  0
  -12.0722  -21.8319   30.1735 C   0  0  0  0  0  0  0  0  0  0  0  0
  -11.3325  -21.4245   31.4390 N   0  0  0  0  0  0  0  0  0  0  0  0
  -10.3949  -21.5444   31.9700 C   0  0  0  0  0  0  0  0  0  0  0  0
   -9.5082  -22.3836   30.9249 O   0  0  0  0  0  0  0  0  0  0  0  0
   -9.8016  -21.3090   33.2582 C   0  0  0  0  0  0  0  0  0  0  0  0
   -8.4469  -21.0925   33.2265 C   0  0  0  0  0  0  0  0  0  0  0  0
   -7.5913  -22.1040   33.5776 C   0  0  0  0  0  0  0  0  0  0  0  0
   -8.0488  -23.2557   34.0551 N   0  0  0  0  0  0  0  0  0  0  0  0
   -9.3392  -23.2898   34.3777 C   0  0  0  0  0  0  0  0  0  0  0  0
  -10.2377  -22.2934   34.0942 C   0  0  0  0  0  0  0  0  0  0  0  0
  -12.7225  -23.6754   27.7923 C   0  0  0  0  0  0  0  0  0  0  0  0
  -13.6064  -23.8686   28.5864 O   0  0  0  0  0  0  0  0  0  0  0  0
  -12.7095  -24.4201   26.4728 C   0  0  0  0  0  0  0  0  0  0  0  0
  -13.4562  -25.7475   26.5813 C   0  0  0  0  0  0  0  0  0  0  0  0
  -12.9069  -26.5967   27.6881 C   0  0  0  0  0  0  0  0  0  0  0  0
  -13.5882  -26.7751   28.8795 C   0  0  0  0  0  0  0  0  0  0  0  0
  -13.0838  -27.4208   29.9461 N   0  0  0  0  0  0  0  0  0  0  0  0
  -11.8529  -27.9187   29.7819 C   0  0  0  0  0  0  0  0  0  0  0  0
  -11.0972  -27.8144   28.6774 N   0  0  0  0  0  0  0  0  0  0  0  0
  -11.6442  -27.1442   27.6507 C   0  0  0  0  0  0  0  0  0  0  0  0
  -10.2864  -24.3904   27.8785 H   0  0  0  0  0  0  0  0  0  0  0  0
   -9.4569  -22.9679   28.3093 H   0  0  0  0  0  0  0  0  0  0  0  0
  -10.6026  -23.8677   29.4681 H   0  0  0  0  0  0  0  0  0  0  0  0
  -11.6972  -20.8279   28.3665 H   0  0  0  0  0  0  0  0  0  0  0  0
  -10.2170  -21.3529   28.9175 H   0  0  0  0  0  0  0  0  0  0  0  0
  -12.2560  -22.8945   30.3570 H   0  0  0  0  0  0  0  0  0  0  0  0
  -13.0645  -21.3727   30.0118 H   0  0  0  0  0  0  0  0  0  0  0  0
  -12.2816  -21.1625   31.3491 H   0  0  0  0  0  0  0  0  0  0  0  0
   -8.0994  -20.1258   32.9323 H   0  0  0  0  0  0  0  0  0  0  0  0
   -6.5134  -22.0119   33.5016 H   0  0  0  0  0  0  0  0  0  0  0  0
   -9.6052  -24.1867   34.8874 H   0  0  0  0  0  0  0  0  0  0  0  0
  -11.2852  -22.3508   34.3073 H   0  0  0  0  0  0  0  0  0  0  0  0
  -13.1924  -23.7813   25.7248 H   0  0  0  0  0  0  0  0  0  0  0  0
  -11.6758  -24.5974   26.1605 H   0  0  0  0  0  0  0  0  0  0  0  0
  -13.3835  -26.2979   25.6374 H   0  0  0  0  0  0  0  0  0  0  0  0
  -14.5264  -25.5653   26.7430 H   0  0  0  0  0  0  0  0  0  0  0  0
  -14.5804  -26.3545   29.0297 H   0  0  0  0  0  0  0  0  0  0  0  0
  -11.4319  -28.4640   30.6180 H   0  0  0  0  0  0  0  0  0  0  0  0
  -11.0029  -27.0458   26.7800 H   0  0  0  0  0  0  0  0  0  0  0  0
  1  2  1  0
  2  3  1  0
  3  4  1  0
  4  5  1  0
  5  6  1  0
  6  7  2  0
  6  8  1  0
  8  9  2  0
  9 10  1  0
 10 11  2  0
 11 12  1  0
 12 13  2  0
  2 14  1  0
 14 15  2  0
 14 16  1  0
 16 17  1  0
 17 18  1  0
 18 19  2  0
 19 20  1  0
 20 21  2  0
 21 22  1  0
 22 23  2  0
 13  8  1  0
 23 18  1  0
  1 24  1  0
  1 25  1  0
  1 26  1  0
  3 27  1  0
  3 28  1  0
  4 29  1  0
  4 30  1  0
  5 31  1  0
  9 32  1  0
 10 33  1  0
 12 34  1  0
 13 35  1  0
 16 36  1  0
 16 37  1  0
 17 38  1  0
 17 39  1  0
 19 40  1  0
 21 41  1  0
 23 42  1  0
M  END
>  <Energy>  (124) 
326.77963469551639

>  <compound_id>  (124) 
34656

>  <target_id>  (124) 
1

>  <reference_id>  (124) 
54

>  <inspiration_ids>  (124) 
[82, 54]

>  <energy_score>  (124) 
311.75513402441476

>  <distance_score>  (124) 
4.04788727635832

>  <path>  (124) 
/opt/xchem-fragalysis-2/maxwin/BulkDock/SCRATCH/511015/C34656-P54/C34656-P54.minimised.mol

>  <scratch_subdir>  (124) 
/opt/xchem-fragalysis-2/maxwin/BulkDock/SCRATCH/511015/C34656-P54

>  <fragmenstein_runtime>  (124) 
5.25434684753418

>  <fragmenstein_outcome>  (124) 
too moved

>  <fragmenstein_mode>  (124) 
expansion

>  <fragmenstein_error>  (124) 


$$$$
C34657-P82
     RDKit          3D

 42 43  0  0  0  0  0  0  0  0999 V2000
  -15.0151  -28.2891   24.6855 C   0  0  0  0  0  0  0  0  0  0  0  0
  -13.9273  -28.2797   25.7590 C   0  0  0  0  0  0  0  0  0  0  0  0
  -13.7168  -26.8323   26.2561 C   0  0  0  0  0  0  0  0  0  0  0  0
  -14.5422  -26.3548   26.9908 O   0  0  0  0  0  0  0  0  0  0  0  0
  -12.4710  -26.3161   25.8058 N   0  0  0  0  0  0  0  0  0  0  0  0
  -11.3863  -26.7320   26.7269 C   0  0  0  0  0  0  0  0  0  0  0  0
  -11.8238  -24.9468   26.0126 C   0  0  0  0  0  0  0  0  0  0  0  0
  -12.4354  -23.9559   27.0294 C   0  0  0  0  0  0  0  0  0  0  0  0
  -12.1922  -24.2592   28.5156 N   0  0  0  0  0  0  0  0  0  0  0  0
  -11.4167  -24.4978   29.2360 C   0  0  0  0  0  0  0  0  0  0  0  0
  -10.1197  -24.6690   28.3051 O   0  0  0  0  0  0  0  0  0  0  0  0
  -11.3097  -24.6633   30.6625 C   0  0  0  0  0  0  0  0  0  0  0  0
  -10.1501  -25.2276   31.1603 C   0  0  0  0  0  0  0  0  0  0  0  0
  -10.0115  -25.3032   32.5233 C   0  0  0  0  0  0  0  0  0  0  0  0
  -10.9575  -24.9052   33.3928 N   0  0  0  0  0  0  0  0  0  0  0  0
  -12.0885  -24.3774   32.8791 C   0  0  0  0  0  0  0  0  0  0  0  0
  -12.3062  -24.2207   31.5247 C   0  0  0  0  0  0  0  0  0  0  0  0
  -14.2323  -29.1121   26.9811 C   0  0  0  0  0  0  0  0  0  0  0  0
  -15.4969  -29.2608   27.5133 C   0  0  0  0  0  0  0  0  0  0  0  0
  -15.7471  -29.8424   28.7005 N   0  0  0  0  0  0  0  0  0  0  0  0
  -14.6822  -30.2659   29.3885 C   0  0  0  0  0  0  0  0  0  0  0  0
  -13.4084  -30.1547   28.9935 N   0  0  0  0  0  0  0  0  0  0  0  0
  -13.2203  -29.6161   27.7745 C   0  0  0  0  0  0  0  0  0  0  0  0
  -14.6902  -27.7222   23.8081 H   0  0  0  0  0  0  0  0  0  0  0  0
  -15.2440  -29.3111   24.3653 H   0  0  0  0  0  0  0  0  0  0  0  0
  -15.9446  -27.8230   25.0306 H   0  0  0  0  0  0  0  0  0  0  0  0
  -13.0123  -28.6644   25.2919 H   0  0  0  0  0  0  0  0  0  0  0  0
  -11.3796  -27.8192   26.6005 H   0  0  0  0  0  0  0  0  0  0  0  0
  -11.6472  -26.6192   27.7828 H   0  0  0  0  0  0  0  0  0  0  0  0
  -10.3465  -26.5257   26.4820 H   0  0  0  0  0  0  0  0  0  0  0  0
  -12.1305  -24.4651   25.0747 H   0  0  0  0  0  0  0  0  0  0  0  0
  -10.7412  -24.8287   25.8981 H   0  0  0  0  0  0  0  0  0  0  0  0
  -11.9295  -22.9910   26.8779 H   0  0  0  0  0  0  0  0  0  0  0  0
  -13.4796  -23.7875   26.7111 H   0  0  0  0  0  0  0  0  0  0  0  0
  -13.1235  -24.0952   28.2260 H   0  0  0  0  0  0  0  0  0  0  0  0
   -9.3663  -25.5692   30.5034 H   0  0  0  0  0  0  0  0  0  0  0  0
   -9.0980  -25.6788   32.9664 H   0  0  0  0  0  0  0  0  0  0  0  0
  -12.8363  -24.0838   33.6106 H   0  0  0  0  0  0  0  0  0  0  0  0
  -13.2336  -23.7932   31.1614 H   0  0  0  0  0  0  0  0  0  0  0  0
  -16.3847  -28.8801   27.0164 H   0  0  0  0  0  0  0  0  0  0  0  0
  -14.8692  -30.7306   30.3501 H   0  0  0  0  0  0  0  0  0  0  0  0
  -12.1830  -29.5935   27.4599 H   0  0  0  0  0  0  0  0  0  0  0  0
  1  2  1  0
  2  3  1  0
  3  4  2  0
  3  5  1  0
  5  6  1  0
  5  7  1  0
  7  8  1  0
  8  9  1  0
  9 10  1  0
 10 11  2  0
 10 12  1  0
 12 13  2  0
 13 14  1  0
 14 15  2  0
 15 16  1  0
 16 17  2  0
  2 18  1  0
 18 19  2  0
 19 20  1  0
 20 21  2  0
 21 22  1  0
 22 23  2  0
 17 12  1  0
 23 18  1  0
  1 24  1  0
  1 25  1  0
  1 26  1  0
  2 27  1  0
  6 28  1  0
  6 29  1  0
  6 30  1  0
  7 31  1  0
  7 32  1  0
  8 33  1  0
  8 34  1  0
  9 35  1  0
 13 36  1  0
 14 37  1  0
 16 38  1  0
 17 39  1  0
 19 40  1  0
 21 41  1  0
 23 42  1  0
M  END
>  <Energy>  (125) 
292.53181909727346

>  <compound_id>  (125) 
34657

>  <target_id>  (125) 
1

>  <reference_id>  (125) 
82

>  <inspiration_ids>  (125) 
[82, 54]

>  <energy_score>  (125) 
247.36523643591858

>  <distance_score>  (125) 
5.394471188281597

>  <path>  (125) 
/opt/xchem-fragalysis-2/maxwin/BulkDock/SCRATCH/511015/C34657-P82/C34657-P82.minimised.mol

>  <scratch_subdir>  (125) 
/opt/xchem-fragalysis-2/maxwin/BulkDock/SCRATCH/511015/C34657-P82

>  <fragmenstein_runtime>  (125) 
6.831279516220093

>  <fragmenstein_outcome>  (125) 
too moved

>  <fragmenstein_mode>  (125) 
expansion

>  <fragmenstein_error>  (125) 


$$$$
C34657-P54
     RDKit          3D

 42 43  0  0  0  0  0  0  0  0999 V2000
  -11.9223  -22.4531   24.9169 C   0  0  0  0  0  0  0  0  0  0  0  0
  -12.4167  -23.1768   26.1625 C   0  0  0  0  0  0  0  0  0  0  0  0
  -11.8685  -22.5208   27.4539 C   0  0  0  0  0  0  0  0  0  0  0  0
  -11.7067  -21.3391   27.5348 O   0  0  0  0  0  0  0  0  0  0  0  0
  -11.7252  -23.5377   28.4307 N   0  0  0  0  0  0  0  0  0  0  0  0
  -13.0023  -23.7599   29.1225 C   0  0  0  0  0  0  0  0  0  0  0  0
  -11.2251  -23.4763   29.8269 C   0  0  0  0  0  0  0  0  0  0  0  0
   -9.9681  -22.6186   29.7801 C   0  0  0  0  0  0  0  0  0  0  0  0
   -9.6004  -22.3241   31.1151 N   0  0  0  0  0  0  0  0  0  0  0  0
  -10.1816  -21.4215   32.0781 C   0  0  0  0  0  0  0  0  0  0  0  0
  -11.0707  -20.6354   31.9718 O   0  0  0  0  0  0  0  0  0  0  0  0
   -9.5436  -21.6798   33.3814 C   0  0  0  0  0  0  0  0  0  0  0  0
   -8.2345  -21.2841   33.4624 C   0  0  0  0  0  0  0  0  0  0  0  0
   -7.3105  -22.2746   33.6039 C   0  0  0  0  0  0  0  0  0  0  0  0
   -7.6392  -23.5841   33.6504 N   0  0  0  0  0  0  0  0  0  0  0  0
   -8.9199  -23.9069   33.8074 C   0  0  0  0  0  0  0  0  0  0  0  0
   -9.8950  -22.9510   33.7791 C   0  0  0  0  0  0  0  0  0  0  0  0
  -12.2448  -24.6897   26.2100 C   0  0  0  0  0  0  0  0  0  0  0  0
  -13.3203  -25.5538   26.2645 C   0  0  0  0  0  0  0  0  0  0  0  0
  -13.2118  -26.8496   26.6111 N   0  0  0  0  0  0  0  0  0  0  0  0
  -11.9748  -27.2701   26.9125 C   0  0  0  0  0  0  0  0  0  0  0  0
  -10.8465  -26.5635   26.7936 N   0  0  0  0  0  0  0  0  0  0  0  0
  -11.0127  -25.2778   26.4468 C   0  0  0  0  0  0  0  0  0  0  0  0
  -11.9477  -21.3715   25.0181 H   0  0  0  0  0  0  0  0  0  0  0  0
  -10.8920  -22.7277   24.6748 H   0  0  0  0  0  0  0  0  0  0  0  0
  -12.5734  -22.6592   24.0620 H   0  0  0  0  0  0  0  0  0  0  0  0
  -13.4983  -22.9864   26.1930 H   0  0  0  0  0  0  0  0  0  0  0  0
  -13.0256  -24.6987   29.6944 H   0  0  0  0  0  0  0  0  0  0  0  0
  -13.7699  -23.9504   28.3618 H   0  0  0  0  0  0  0  0  0  0  0  0
  -13.3829  -22.8392   29.5835 H   0  0  0  0  0  0  0  0  0  0  0  0
  -10.9563  -24.4875   30.1709 H   0  0  0  0  0  0  0  0  0  0  0  0
  -11.8299  -22.9695   30.5986 H   0  0  0  0  0  0  0  0  0  0  0  0
  -10.1526  -21.6613   29.2905 H   0  0  0  0  0  0  0  0  0  0  0  0
   -9.1421  -23.1329   29.2793 H   0  0  0  0  0  0  0  0  0  0  0  0
   -8.8009  -22.7892   31.5352 H   0  0  0  0  0  0  0  0  0  0  0  0
   -7.9428  -20.2687   33.2628 H   0  0  0  0  0  0  0  0  0  0  0  0
   -6.2521  -22.0329   33.6135 H   0  0  0  0  0  0  0  0  0  0  0  0
   -9.1205  -24.9669   33.8484 H   0  0  0  0  0  0  0  0  0  0  0  0
  -10.9296  -23.1784   33.6870 H   0  0  0  0  0  0  0  0  0  0  0  0
  -14.3371  -25.2083   26.0950 H   0  0  0  0  0  0  0  0  0  0  0  0
  -11.8814  -28.2833   27.2860 H   0  0  0  0  0  0  0  0  0  0  0  0
  -10.1086  -24.6822   26.4593 H   0  0  0  0  0  0  0  0  0  0  0  0
  1  2  1  0
  2  3  1  0
  3  4  2  0
  3  5  1  0
  5  6  1  0
  5  7  1  0
  7  8  1  0
  8  9  1  0
  9 10  1  0
 10 11  2  0
 10 12  1  0
 12 13  2  0
 13 14  1  0
 14 15  2  0
 15 16  1  0
 16 17  2  0
  2 18  1  0
 18 19  2  0
 19 20  1  0
 20 21  2  0
 21 22  1  0
 22 23  2  0
 17 12  1  0
 23 18  1  0
  1 24  1  0
  1 25  1  0
  1 26  1  0
  2 27  1  0
  6 28  1  0
  6 29  1  0
  6 30  1  0
  7 31  1  0
  7 32  1  0
  8 33  1  0
  8 34  1  0
  9 35  1  0
 13 36  1  0
 14 37  1  0
 16 38  1  0
 17 39  1  0
 19 40  1  0
 21 41  1  0
 23 42  1  0
M  END
>  <Energy>  (126) 
136.12764968460939

>  <compound_id>  (126) 
34657

>  <target_id>  (126) 
1

>  <reference_id>  (126) 
54

>  <inspiration_ids>  (126) 
[82, 54]

>  <energy_score>  (126) 
90.96106702325221

>  <distance_score>  (126) 
4.358270864407054

>  <path>  (126) 
/opt/xchem-fragalysis-2/maxwin/BulkDock/SCRATCH/511015/C34657-P54/C34657-P54.minimised.mol

>  <scratch_subdir>  (126) 
/opt/xchem-fragalysis-2/maxwin/BulkDock/SCRATCH/511015/C34657-P54

>  <fragmenstein_runtime>  (126) 
6.743029356002808

>  <fragmenstein_outcome>  (126) 
too moved

>  <fragmenstein_mode>  (126) 
expansion

>  <fragmenstein_error>  (126) 


$$$$
C34658-P82
     RDKit          3D

 45 46  0  0  0  0  0  0  0  0999 V2000
  -10.1551  -26.6908   31.0359 C   0  0  0  0  0  0  0  0  0  0  0  0
  -10.9836  -25.7485   31.8368 C   0  0  0  0  0  0  0  0  0  0  0  0
  -11.9885  -25.0306   31.2432 C   0  0  0  0  0  0  0  0  0  0  0  0
  -12.5572  -23.9707   31.9599 C   0  0  0  0  0  0  0  0  0  0  0  0
  -12.9214  -22.7689   31.1818 C   0  0  0  0  0  0  0  0  0  0  0  0
  -13.9293  -22.1562   31.3492 O   0  0  0  0  0  0  0  0  0  0  0  0
  -11.8926  -22.6215   30.2112 N   0  0  0  0  0  0  0  0  0  0  0  0
  -11.7896  -21.7753   29.1001 C   0  0  0  0  0  0  0  0  0  0  0  0
  -11.3949  -22.5508   27.8389 C   0  0  0  0  0  0  0  0  0  0  0  0
  -12.2426  -23.7328   27.3991 N   0  0  0  0  0  0  0  0  0  0  0  0
  -11.0280  -24.4943   27.8343 C   0  0  0  0  0  0  0  0  0  0  0  0
  -12.6448  -24.1571   26.0938 C   0  0  0  0  0  0  0  0  0  0  0  0
  -12.3407  -23.7396   25.0090 O   0  0  0  0  0  0  0  0  0  0  0  0
  -13.5380  -25.4100   26.1903 C   0  0  0  0  0  0  0  0  0  0  0  0
  -14.6619  -25.3596   25.1487 C   0  0  0  0  0  0  0  0  0  0  0  0
  -12.8070  -26.7124   26.0675 C   0  0  0  0  0  0  0  0  0  0  0  0
  -13.3211  -27.8976   26.5482 C   0  0  0  0  0  0  0  0  0  0  0  0
  -12.6836  -29.0756   26.4694 N   0  0  0  0  0  0  0  0  0  0  0  0
  -11.5065  -29.0584   25.8323 C   0  0  0  0  0  0  0  0  0  0  0  0
  -10.9139  -27.9720   25.3176 N   0  0  0  0  0  0  0  0  0  0  0  0
  -11.5819  -26.8207   25.4650 C   0  0  0  0  0  0  0  0  0  0  0  0
  -12.3537  -23.8398   33.3009 C   0  0  0  0  0  0  0  0  0  0  0  0
  -11.4721  -24.7396   33.8373 C   0  0  0  0  0  0  0  0  0  0  0  0
  -10.7221  -25.6215   33.1437 N   0  0  0  0  0  0  0  0  0  0  0  0
   -9.1180  -26.5486   31.3271 H   0  0  0  0  0  0  0  0  0  0  0  0
  -10.2303  -26.4947   29.9632 H   0  0  0  0  0  0  0  0  0  0  0  0
  -10.4519  -27.7228   31.2236 H   0  0  0  0  0  0  0  0  0  0  0  0
  -12.2425  -25.1706   30.1994 H   0  0  0  0  0  0  0  0  0  0  0  0
  -11.1478  -23.2634   30.4226 H   0  0  0  0  0  0  0  0  0  0  0  0
  -10.9807  -21.1022   29.3678 H   0  0  0  0  0  0  0  0  0  0  0  0
  -12.6701  -21.1792   28.9862 H   0  0  0  0  0  0  0  0  0  0  0  0
  -10.3092  -22.6446   27.8785 H   0  0  0  0  0  0  0  0  0  0  0  0
  -11.5553  -21.8470   27.0173 H   0  0  0  0  0  0  0  0  0  0  0  0
  -10.6259  -24.3326   28.8385 H   0  0  0  0  0  0  0  0  0  0  0  0
  -11.3419  -25.5421   27.8969 H   0  0  0  0  0  0  0  0  0  0  0  0
  -10.2519  -24.4901   27.0570 H   0  0  0  0  0  0  0  0  0  0  0  0
  -13.9390  -25.4209   27.2004 H   0  0  0  0  0  0  0  0  0  0  0  0
  -14.3098  -25.6143   24.1463 H   0  0  0  0  0  0  0  0  0  0  0  0
  -15.4519  -26.0803   25.3888 H   0  0  0  0  0  0  0  0  0  0  0  0
  -15.1129  -24.3646   25.0872 H   0  0  0  0  0  0  0  0  0  0  0  0
  -14.2981  -27.9509   27.0171 H   0  0  0  0  0  0  0  0  0  0  0  0
  -10.9820  -30.0036   25.7337 H   0  0  0  0  0  0  0  0  0  0  0  0
  -11.0847  -25.9469   25.0618 H   0  0  0  0  0  0  0  0  0  0  0  0
  -12.7908  -23.0354   33.8661 H   0  0  0  0  0  0  0  0  0  0  0  0
  -11.2749  -24.7467   34.8935 H   0  0  0  0  0  0  0  0  0  0  0  0
  1  2  1  0
  2  3  2  0
  3  4  1  0
  4  5  1  0
  5  6  2  0
  5  7  1  0
  7  8  1  0
  8  9  1  0
  9 10  1  0
 10 11  1  0
 10 12  1  0
 12 13  2  0
 12 14  1  0
 14 15  1  0
 14 16  1  0
 16 17  2  0
 17 18  1  0
 18 19  2  0
 19 20  1  0
 20 21  2  0
  4 22  2  0
 22 23  1  0
 23 24  2  0
 24  2  1  0
 21 16  1  0
  1 25  1  0
  1 26  1  0
  1 27  1  0
  3 28  1  0
  7 29  1  0
  8 30  1  0
  8 31  1  0
  9 32  1  0
  9 33  1  0
 11 34  1  0
 11 35  1  0
 11 36  1  0
 14 37  1  0
 15 38  1  0
 15 39  1  0
 15 40  1  0
 17 41  1  0
 19 42  1  0
 21 43  1  0
 22 44  1  0
 23 45  1  0
M  END
>  <Energy>  (127) 
115.03339918369312

>  <compound_id>  (127) 
34658

>  <target_id>  (127) 
1

>  <reference_id>  (127) 
82

>  <inspiration_ids>  (127) 
[82, 54]

>  <energy_score>  (127) 
70.78305194626145

>  <distance_score>  (127) 
3.533227805496902

>  <path>  (127) 
/opt/xchem-fragalysis-2/maxwin/BulkDock/SCRATCH/511015/C34658-P82/C34658-P82.minimised.mol

>  <scratch_subdir>  (127) 
/opt/xchem-fragalysis-2/maxwin/BulkDock/SCRATCH/511015/C34658-P82

>  <fragmenstein_runtime>  (127) 
6.818145513534546

>  <fragmenstein_outcome>  (127) 
too moved

>  <fragmenstein_mode>  (127) 
expansion

>  <fragmenstein_error>  (127) 


$$$$
C34658-P54
     RDKit          3D

 45 46  0  0  0  0  0  0  0  0999 V2000
   -8.4008  -23.7893   33.0842 C   0  0  0  0  0  0  0  0  0  0  0  0
   -9.4021  -23.1962   32.1462 C   0  0  0  0  0  0  0  0  0  0  0  0
   -9.4524  -23.5629   30.8090 C   0  0  0  0  0  0  0  0  0  0  0  0
  -10.3912  -22.9706   29.9504 C   0  0  0  0  0  0  0  0  0  0  0  0
  -10.4801  -23.5245   28.5420 C   0  0  0  0  0  0  0  0  0  0  0  0
   -9.8612  -24.5354   28.3849 O   0  0  0  0  0  0  0  0  0  0  0  0
  -11.3550  -22.8169   27.6545 N   0  0  0  0  0  0  0  0  0  0  0  0
  -11.8388  -23.1521   26.3271 C   0  0  0  0  0  0  0  0  0  0  0  0
  -13.2891  -23.7754   26.2276 C   0  0  0  0  0  0  0  0  0  0  0  0
  -13.5764  -25.2113   26.6226 N   0  0  0  0  0  0  0  0  0  0  0  0
  -13.3745  -24.6508   27.9917 C   0  0  0  0  0  0  0  0  0  0  0  0
  -12.7977  -26.3959   26.4567 C   0  0  0  0  0  0  0  0  0  0  0  0
  -11.6764  -26.5444   26.0419 O   0  0  0  0  0  0  0  0  0  0  0  0
  -13.5429  -27.6370   27.0155 C   0  0  0  0  0  0  0  0  0  0  0  0
  -15.0286  -27.6494   26.6487 C   0  0  0  0  0  0  0  0  0  0  0  0
  -13.2184  -27.7406   28.4979 C   0  0  0  0  0  0  0  0  0  0  0  0
  -14.1522  -27.6908   29.5157 C   0  0  0  0  0  0  0  0  0  0  0  0
  -13.8442  -27.5971   30.8273 N   0  0  0  0  0  0  0  0  0  0  0  0
  -12.5392  -27.6095   31.1212 C   0  0  0  0  0  0  0  0  0  0  0  0
  -11.5426  -27.6653   30.2366 N   0  0  0  0  0  0  0  0  0  0  0  0
  -11.9028  -27.7379   28.9406 C   0  0  0  0  0  0  0  0  0  0  0  0
  -11.2547  -22.0191   30.4911 C   0  0  0  0  0  0  0  0  0  0  0  0
  -11.1212  -21.6984   31.8345 C   0  0  0  0  0  0  0  0  0  0  0  0
  -10.2203  -22.2614   32.6628 N   0  0  0  0  0  0  0  0  0  0  0  0
   -8.8253  -23.8593   34.0909 H   0  0  0  0  0  0  0  0  0  0  0  0
   -7.5132  -23.1525   33.1240 H   0  0  0  0  0  0  0  0  0  0  0  0
   -8.1111  -24.7970   32.7783 H   0  0  0  0  0  0  0  0  0  0  0  0
   -8.7759  -24.3260   30.4387 H   0  0  0  0  0  0  0  0  0  0  0  0
  -11.6394  -21.9545   28.0919 H   0  0  0  0  0  0  0  0  0  0  0  0
  -11.8123  -22.2328   25.7366 H   0  0  0  0  0  0  0  0  0  0  0  0
  -11.1113  -23.8514   25.9065 H   0  0  0  0  0  0  0  0  0  0  0  0
  -13.4465  -23.8418   25.1414 H   0  0  0  0  0  0  0  0  0  0  0  0
  -14.1140  -23.1025   26.4795 H   0  0  0  0  0  0  0  0  0  0  0  0
  -13.6807  -23.6463   28.2952 H   0  0  0  0  0  0  0  0  0  0  0  0
  -14.1010  -25.2180   28.5887 H   0  0  0  0  0  0  0  0  0  0  0  0
  -12.4188  -24.9586   28.4155 H   0  0  0  0  0  0  0  0  0  0  0  0
  -13.1006  -28.5134   26.5239 H   0  0  0  0  0  0  0  0  0  0  0  0
  -15.4885  -28.6041   26.9266 H   0  0  0  0  0  0  0  0  0  0  0  0
  -15.5915  -26.8528   27.1472 H   0  0  0  0  0  0  0  0  0  0  0  0
  -15.1637  -27.5103   25.5720 H   0  0  0  0  0  0  0  0  0  0  0  0
  -15.2205  -27.6787   29.3182 H   0  0  0  0  0  0  0  0  0  0  0  0
  -12.2662  -27.5739   32.1694 H   0  0  0  0  0  0  0  0  0  0  0  0
  -11.0633  -27.7573   28.2464 H   0  0  0  0  0  0  0  0  0  0  0  0
  -12.0459  -21.5361   29.9388 H   0  0  0  0  0  0  0  0  0  0  0  0
  -11.7755  -20.9670   32.3037 H   0  0  0  0  0  0  0  0  0  0  0  0
  1  2  1  0
  2  3  2  0
  3  4  1  0
  4  5  1  0
  5  6  2  0
  5  7  1  0
  7  8  1  0
  8  9  1  0
  9 10  1  0
 10 11  1  0
 10 12  1  0
 12 13  2  0
 12 14  1  0
 14 15  1  0
 14 16  1  0
 16 17  2  0
 17 18  1  0
 18 19  2  0
 19 20  1  0
 20 21  2  0
  4 22  2  0
 22 23  1  0
 23 24  2  0
 24  2  1  0
 21 16  1  0
  1 25  1  0
  1 26  1  0
  1 27  1  0
  3 28  1  0
  7 29  1  0
  8 30  1  0
  8 31  1  0
  9 32  1  0
  9 33  1  0
 11 34  1  0
 11 35  1  0
 11 36  1  0
 14 37  1  0
 15 38  1  0
 15 39  1  0
 15 40  1  0
 17 41  1  0
 19 42  1  0
 21 43  1  0
 22 44  1  0
 23 45  1  0
M  END
>  <Energy>  (128) 
101.05366794237115

>  <compound_id>  (128) 
34658

>  <target_id>  (128) 
1

>  <reference_id>  (128) 
54

>  <inspiration_ids>  (128) 
[82, 54]

>  <energy_score>  (128) 
56.80332070493853

>  <distance_score>  (128) 
4.067780700360177

>  <path>  (128) 
/opt/xchem-fragalysis-2/maxwin/BulkDock/SCRATCH/511015/C34658-P54/C34658-P54.minimised.mol

>  <scratch_subdir>  (128) 
/opt/xchem-fragalysis-2/maxwin/BulkDock/SCRATCH/511015/C34658-P54

>  <fragmenstein_runtime>  (128) 
8.871984958648682

>  <fragmenstein_outcome>  (128) 
too moved

>  <fragmenstein_mode>  (128) 
expansion

>  <fragmenstein_error>  (128) 


$$$$
C34659-P82
     RDKit          3D

 45 46  0  0  0  0  0  0  0  0999 V2000
  -10.4477  -26.7756   30.8054 C   0  0  0  0  0  0  0  0  0  0  0  0
  -10.2152  -25.4651   30.1011 C   0  0  0  0  0  0  0  0  0  0  0  0
  -10.1337  -25.6431   28.5938 C   0  0  0  0  0  0  0  0  0  0  0  0
  -11.3736  -25.9988   27.9551 N   0  0  0  0  0  0  0  0  0  0  0  0
  -11.6373  -26.7824   26.7749 C   0  0  0  0  0  0  0  0  0  0  0  0
  -10.8982  -27.4051   26.0688 O   0  0  0  0  0  0  0  0  0  0  0  0
  -13.1182  -26.6504   26.3928 C   0  0  0  0  0  0  0  0  0  0  0  0
  -13.5436  -27.8512   25.5402 C   0  0  0  0  0  0  0  0  0  0  0  0
  -13.3223  -25.3301   25.6855 C   0  0  0  0  0  0  0  0  0  0  0  0
  -14.4931  -25.0018   25.0291 C   0  0  0  0  0  0  0  0  0  0  0  0
  -14.6725  -23.8675   24.3290 N   0  0  0  0  0  0  0  0  0  0  0  0
  -13.6112  -23.0474   24.2802 C   0  0  0  0  0  0  0  0  0  0  0  0
  -12.4386  -23.2436   24.8862 N   0  0  0  0  0  0  0  0  0  0  0  0
  -12.3299  -24.3630   25.5990 C   0  0  0  0  0  0  0  0  0  0  0  0
  -11.1593  -24.4440   30.4970 N   0  0  0  0  0  0  0  0  0  0  0  0
  -11.3152  -23.7394   31.7328 C   0  0  0  0  0  0  0  0  0  0  0  0
  -10.7557  -23.8702   32.7820 O   0  0  0  0  0  0  0  0  0  0  0  0
  -12.3008  -22.5879   31.5826 C   0  0  0  0  0  0  0  0  0  0  0  0
  -13.6193  -22.7612   32.2670 C   0  0  0  0  0  0  0  0  0  0  0  0
  -13.8327  -23.7018   33.2703 C   0  0  0  0  0  0  0  0  0  0  0  0
  -15.0976  -23.8102   33.8401 C   0  0  0  0  0  0  0  0  0  0  0  0
  -16.0996  -22.9665   33.4126 C   0  0  0  0  0  0  0  0  0  0  0  0
  -17.3256  -23.0364   33.9457 F   0  0  0  0  0  0  0  0  0  0  0  0
  -15.8071  -22.0336   32.4399 C   0  0  0  0  0  0  0  0  0  0  0  0
  -14.5884  -21.8886   31.8702 N   0  0  0  0  0  0  0  0  0  0  0  0
  -10.6865  -26.6207   31.8607 H   0  0  0  0  0  0  0  0  0  0  0  0
  -11.2478  -27.3317   30.3148 H   0  0  0  0  0  0  0  0  0  0  0  0
   -9.5509  -27.3944   30.7616 H   0  0  0  0  0  0  0  0  0  0  0  0
   -9.2507  -25.0967   30.4567 H   0  0  0  0  0  0  0  0  0  0  0  0
   -9.8660  -24.6830   28.1439 H   0  0  0  0  0  0  0  0  0  0  0  0
   -9.3645  -26.3604   28.3096 H   0  0  0  0  0  0  0  0  0  0  0  0
  -12.2560  -25.6779   28.3447 H   0  0  0  0  0  0  0  0  0  0  0  0
  -13.7221  -26.6562   27.2988 H   0  0  0  0  0  0  0  0  0  0  0  0
  -13.0458  -27.8506   24.5639 H   0  0  0  0  0  0  0  0  0  0  0  0
  -13.2897  -28.7915   26.0425 H   0  0  0  0  0  0  0  0  0  0  0  0
  -14.6242  -27.8560   25.3637 H   0  0  0  0  0  0  0  0  0  0  0  0
  -15.3560  -25.6619   25.0239 H   0  0  0  0  0  0  0  0  0  0  0  0
  -13.7025  -22.1368   23.7057 H   0  0  0  0  0  0  0  0  0  0  0  0
  -11.3448  -24.4556   26.0409 H   0  0  0  0  0  0  0  0  0  0  0  0
  -11.7444  -24.0081   29.7925 H   0  0  0  0  0  0  0  0  0  0  0  0
  -11.8095  -21.7012   32.0048 H   0  0  0  0  0  0  0  0  0  0  0  0
  -12.4708  -22.3532   30.5256 H   0  0  0  0  0  0  0  0  0  0  0  0
  -13.0458  -24.3645   33.6196 H   0  0  0  0  0  0  0  0  0  0  0  0
  -15.2986  -24.5553   34.6007 H   0  0  0  0  0  0  0  0  0  0  0  0
  -16.5780  -21.3580   32.0885 H   0  0  0  0  0  0  0  0  0  0  0  0
  1  2  1  0
  2  3  1  0
  3  4  1  0
  4  5  1  0
  5  6  2  0
  5  7  1  0
  7  8  1  0
  7  9  1  0
  9 10  2  0
 10 11  1  0
 11 12  2  0
 12 13  1  0
 13 14  2  0
  2 15  1  0
 15 16  1  0
 16 17  2  0
 16 18  1  0
 18 19  1  0
 19 20  2  0
 20 21  1  0
 21 22  2  0
 22 23  1  0
 22 24  1  0
 24 25  2  0
 14  9  1  0
 25 19  1  0
  1 26  1  0
  1 27  1  0
  1 28  1  0
  2 29  1  0
  3 30  1  0
  3 31  1  0
  4 32  1  0
  7 33  1  0
  8 34  1  0
  8 35  1  0
  8 36  1  0
 10 37  1  0
 12 38  1  0
 14 39  1  0
 15 40  1  0
 18 41  1  0
 18 42  1  0
 20 43  1  0
 21 44  1  0
 24 45  1  0
M  END
>  <Energy>  (129) 
50.102419426495594

>  <compound_id>  (129) 
34659

>  <target_id>  (129) 
1

>  <reference_id>  (129) 
82

>  <inspiration_ids>  (129) 
[82, 54]

>  <energy_score>  (129) 
-25.592834994335902

>  <distance_score>  (129) 
4.589316552213862

>  <path>  (129) 
/opt/xchem-fragalysis-2/maxwin/BulkDock/SCRATCH/511015/C34659-P82/C34659-P82.minimised.mol

>  <scratch_subdir>  (129) 
/opt/xchem-fragalysis-2/maxwin/BulkDock/SCRATCH/511015/C34659-P82

>  <fragmenstein_runtime>  (129) 
9.087234020233154

>  <fragmenstein_outcome>  (129) 
too moved

>  <fragmenstein_mode>  (129) 
expansion

>  <fragmenstein_error>  (129) 


$$$$
C34659-P54
     RDKit          3D

 45 46  0  0  0  0  0  0  0  0999 V2000
  -14.4414  -29.9235   28.9050 C   0  0  0  0  0  0  0  0  0  0  0  0
  -13.9642  -28.6426   28.2304 C   0  0  0  0  0  0  0  0  0  0  0  0
  -15.1603  -27.7167   27.9249 C   0  0  0  0  0  0  0  0  0  0  0  0
  -14.7514  -26.3801   27.5785 N   0  0  0  0  0  0  0  0  0  0  0  0
  -13.9716  -25.8521   26.3430 C   0  0  0  0  0  0  0  0  0  0  0  0
  -13.6096  -26.4095   25.3810 O   0  0  0  0  0  0  0  0  0  0  0  0
  -13.6202  -24.3666   26.6421 C   0  0  0  0  0  0  0  0  0  0  0  0
  -14.1070  -23.5068   25.4823 C   0  0  0  0  0  0  0  0  0  0  0  0
  -12.1688  -24.1727   27.0388 C   0  0  0  0  0  0  0  0  0  0  0  0
  -11.6163  -22.9262   27.2872 C   0  0  0  0  0  0  0  0  0  0  0  0
  -10.4224  -22.7288   27.8812 N   0  0  0  0  0  0  0  0  0  0  0  0
   -9.7381  -23.8318   28.1974 C   0  0  0  0  0  0  0  0  0  0  0  0
  -10.1307  -25.0889   27.9489 N   0  0  0  0  0  0  0  0  0  0  0  0
  -11.3314  -25.2249   27.3589 C   0  0  0  0  0  0  0  0  0  0  0  0
  -12.9131  -28.0235   29.0279 N   0  0  0  0  0  0  0  0  0  0  0  0
  -12.9758  -26.8388   30.0419 C   0  0  0  0  0  0  0  0  0  0  0  0
  -13.8637  -26.1351   30.3295 O   0  0  0  0  0  0  0  0  0  0  0  0
  -11.5813  -26.7188   30.6374 C   0  0  0  0  0  0  0  0  0  0  0  0
  -11.0956  -25.3754   31.1372 C   0  0  0  0  0  0  0  0  0  0  0  0
  -11.5099  -24.1529   30.6343 C   0  0  0  0  0  0  0  0  0  0  0  0
  -10.9904  -22.9630   31.1569 C   0  0  0  0  0  0  0  0  0  0  0  0
  -10.0200  -23.0220   32.1360 C   0  0  0  0  0  0  0  0  0  0  0  0
   -9.4777  -21.9045   32.6333 F   0  0  0  0  0  0  0  0  0  0  0  0
   -9.6055  -24.2601   32.5654 C   0  0  0  0  0  0  0  0  0  0  0  0
  -10.1491  -25.4193   32.1132 N   0  0  0  0  0  0  0  0  0  0  0  0
  -14.8859  -29.7139   29.8843 H   0  0  0  0  0  0  0  0  0  0  0  0
  -15.1889  -30.4352   28.2902 H   0  0  0  0  0  0  0  0  0  0  0  0
  -13.6048  -30.6126   29.0652 H   0  0  0  0  0  0  0  0  0  0  0  0
  -13.4792  -28.9046   27.2823 H   0  0  0  0  0  0  0  0  0  0  0  0
  -15.8214  -27.6284   28.7935 H   0  0  0  0  0  0  0  0  0  0  0  0
  -15.7378  -28.1221   27.0876 H   0  0  0  0  0  0  0  0  0  0  0  0
  -14.8300  -25.6408   28.2723 H   0  0  0  0  0  0  0  0  0  0  0  0
  -14.1962  -24.0391   27.5150 H   0  0  0  0  0  0  0  0  0  0  0  0
  -15.1974  -23.5749   25.4067 H   0  0  0  0  0  0  0  0  0  0  0  0
  -13.8567  -22.4547   25.6034 H   0  0  0  0  0  0  0  0  0  0  0  0
  -13.6916  -23.8246   24.5291 H   0  0  0  0  0  0  0  0  0  0  0  0
  -12.1352  -22.0047   27.0490 H   0  0  0  0  0  0  0  0  0  0  0  0
   -8.7941  -23.7042   28.7141 H   0  0  0  0  0  0  0  0  0  0  0  0
  -11.6087  -26.2604   27.1870 H   0  0  0  0  0  0  0  0  0  0  0  0
  -11.9597  -28.3667   28.9649 H   0  0  0  0  0  0  0  0  0  0  0  0
  -11.5669  -27.4301   31.4725 H   0  0  0  0  0  0  0  0  0  0  0  0
  -10.8599  -27.0517   29.8921 H   0  0  0  0  0  0  0  0  0  0  0  0
  -12.2616  -24.0915   29.8590 H   0  0  0  0  0  0  0  0  0  0  0  0
  -11.3303  -22.0002   30.7892 H   0  0  0  0  0  0  0  0  0  0  0  0
   -8.8212  -24.3596   33.3077 H   0  0  0  0  0  0  0  0  0  0  0  0
  1  2  1  0
  2  3  1  0
  3  4  1  0
  4  5  1  0
  5  6  2  0
  5  7  1  0
  7  8  1  0
  7  9  1  0
  9 10  2  0
 10 11  1  0
 11 12  2  0
 12 13  1  0
 13 14  2  0
  2 15  1  0
 15 16  1  0
 16 17  2  0
 16 18  1  0
 18 19  1  0
 19 20  2  0
 20 21  1  0
 21 22  2  0
 22 23  1  0
 22 24  1  0
 24 25  2  0
 14  9  1  0
 25 19  1  0
  1 26  1  0
  1 27  1  0
  1 28  1  0
  2 29  1  0
  3 30  1  0
  3 31  1  0
  4 32  1  0
  7 33  1  0
  8 34  1  0
  8 35  1  0
  8 36  1  0
 10 37  1  0
 12 38  1  0
 14 39  1  0
 15 40  1  0
 18 41  1  0
 18 42  1  0
 20 43  1  0
 21 44  1  0
 24 45  1  0
M  END
>  <Energy>  (130) 
64.187941316998689

>  <compound_id>  (130) 
34659

>  <target_id>  (130) 
1

>  <reference_id>  (130) 
54

>  <inspiration_ids>  (130) 
[82, 54]

>  <energy_score>  (130) 
-3.671615989228542

>  <distance_score>  (130) 
1.7603580884719934

>  <path>  (130) 
/opt/xchem-fragalysis-2/maxwin/BulkDock/SCRATCH/511015/C34659-P54/C34659-P54.minimised.mol

>  <scratch_subdir>  (130) 
/opt/xchem-fragalysis-2/maxwin/BulkDock/SCRATCH/511015/C34659-P54

>  <fragmenstein_runtime>  (130) 
14.514700651168823

>  <fragmenstein_outcome>  (130) 
too moved

>  <fragmenstein_mode>  (130) 
expansion

>  <fragmenstein_error>  (130) 


$$$$
C34660-P82
     RDKit          3D

 45 46  0  0  0  0  0  0  0  0999 V2000
  -11.5230  -22.6100   29.5046 C   0  0  0  0  0  0  0  0  0  0  0  0
  -11.4523  -24.1346   29.3907 C   0  0  0  0  0  0  0  0  0  0  0  0
  -10.4466  -24.7161   28.4027 C   0  0  0  0  0  0  0  0  0  0  0  0
  -10.8872  -24.4656   27.0672 N   0  0  0  0  0  0  0  0  0  0  0  0
  -11.6741  -23.2821   26.4810 C   0  0  0  0  0  0  0  0  0  0  0  0
  -12.0195  -22.2918   26.9744 O   0  0  0  0  0  0  0  0  0  0  0  0
  -12.0728  -23.6365   25.0751 C   0  0  0  0  0  0  0  0  0  0  0  0
  -13.3615  -24.4508   25.2267 C   0  0  0  0  0  0  0  0  0  0  0  0
  -13.0909  -25.7440   25.9203 C   0  0  0  0  0  0  0  0  0  0  0  0
  -13.2472  -25.8092   27.2676 C   0  0  0  0  0  0  0  0  0  0  0  0
  -12.8009  -26.7786   28.0625 N   0  0  0  0  0  0  0  0  0  0  0  0
  -12.1907  -27.7735   27.4609 C   0  0  0  0  0  0  0  0  0  0  0  0
  -11.9409  -27.8320   26.1590 N   0  0  0  0  0  0  0  0  0  0  0  0
  -12.4253  -26.8243   25.4160 C   0  0  0  0  0  0  0  0  0  0  0  0
  -11.3821  -24.6790   30.6856 N   0  0  0  0  0  0  0  0  0  0  0  0
  -10.1726  -25.1869   31.4933 C   0  0  0  0  0  0  0  0  0  0  0  0
   -9.0593  -25.3058   31.1861 O   0  0  0  0  0  0  0  0  0  0  0  0
  -10.6676  -25.4374   32.9055 C   0  0  0  0  0  0  0  0  0  0  0  0
  -11.5910  -24.2995   33.2644 C   0  0  0  0  0  0  0  0  0  0  0  0
  -12.9265  -24.4954   33.5435 C   0  0  0  0  0  0  0  0  0  0  0  0
  -13.8538  -23.4738   33.3846 C   0  0  0  0  0  0  0  0  0  0  0  0
  -13.3957  -22.2249   33.0660 C   0  0  0  0  0  0  0  0  0  0  0  0
  -14.2450  -21.1960   32.9606 F   0  0  0  0  0  0  0  0  0  0  0  0
  -12.0432  -22.0573   32.9170 C   0  0  0  0  0  0  0  0  0  0  0  0
  -11.1465  -23.0678   32.9691 N   0  0  0  0  0  0  0  0  0  0  0  0
  -11.4031  -22.2419   30.5164 H   0  0  0  0  0  0  0  0  0  0  0  0
  -12.5154  -22.2551   29.2242 H   0  0  0  0  0  0  0  0  0  0  0  0
  -10.7878  -22.0982   28.8833 H   0  0  0  0  0  0  0  0  0  0  0  0
  -12.4494  -24.4216   29.1069 H   0  0  0  0  0  0  0  0  0  0  0  0
   -9.4334  -24.3816   28.4991 H   0  0  0  0  0  0  0  0  0  0  0  0
  -10.3879  -25.8032   28.5179 H   0  0  0  0  0  0  0  0  0  0  0  0
  -10.6852  -25.1305   26.3369 H   0  0  0  0  0  0  0  0  0  0  0  0
  -12.2682  -22.7242   24.5024 H   0  0  0  0  0  0  0  0  0  0  0  0
  -11.2483  -24.1650   24.5929 H   0  0  0  0  0  0  0  0  0  0  0  0
  -14.0807  -23.8699   25.8059 H   0  0  0  0  0  0  0  0  0  0  0  0
  -13.8937  -24.6215   24.2885 H   0  0  0  0  0  0  0  0  0  0  0  0
  -13.6564  -24.9776   27.7925 H   0  0  0  0  0  0  0  0  0  0  0  0
  -11.9233  -28.6275   28.0601 H   0  0  0  0  0  0  0  0  0  0  0  0
  -12.2108  -26.9299   24.3669 H   0  0  0  0  0  0  0  0  0  0  0  0
  -12.2243  -24.7841   31.2358 H   0  0  0  0  0  0  0  0  0  0  0  0
   -9.8130  -25.4430   33.5854 H   0  0  0  0  0  0  0  0  0  0  0  0
  -11.1239  -26.4166   32.9167 H   0  0  0  0  0  0  0  0  0  0  0  0
  -13.2719  -25.4400   33.9098 H   0  0  0  0  0  0  0  0  0  0  0  0
  -14.9103  -23.6463   33.5568 H   0  0  0  0  0  0  0  0  0  0  0  0
  -11.6286  -21.0777   32.7073 H   0  0  0  0  0  0  0  0  0  0  0  0
  1  2  1  0
  2  3  1  0
  3  4  1  0
  4  5  1  0
  5  6  2  0
  5  7  1  0
  7  8  1  0
  8  9  1  0
  9 10  2  0
 10 11  1  0
 11 12  2  0
 12 13  1  0
 13 14  2  0
  2 15  1  0
 15 16  1  0
 16 17  2  0
 16 18  1  0
 18 19  1  0
 19 20  2  0
 20 21  1  0
 21 22  2  0
 22 23  1  0
 22 24  1  0
 24 25  2  0
 14  9  1  0
 25 19  1  0
  1 26  1  0
  1 27  1  0
  1 28  1  0
  2 29  1  0
  3 30  1  0
  3 31  1  0
  4 32  1  0
  7 33  1  0
  7 34  1  0
  8 35  1  0
  8 36  1  0
 10 37  1  0
 12 38  1  0
 14 39  1  0
 15 40  1  0
 18 41  1  0
 18 42  1  0
 20 43  1  0
 21 44  1  0
 24 45  1  0
M  END
>  <Energy>  (131) 
98.08916741866048

>  <compound_id>  (131) 
34660

>  <target_id>  (131) 
1

>  <reference_id>  (131) 
82

>  <inspiration_ids>  (131) 
[82, 54]

>  <energy_score>  (131) 
44.60166661523908

>  <distance_score>  (131) 
3.493016254485185

>  <path>  (131) 
/opt/xchem-fragalysis-2/maxwin/BulkDock/SCRATCH/511015/C34660-P82/C34660-P82.minimised.mol

>  <scratch_subdir>  (131) 
/opt/xchem-fragalysis-2/maxwin/BulkDock/SCRATCH/511015/C34660-P82

>  <fragmenstein_runtime>  (131) 
6.188140869140625

>  <fragmenstein_outcome>  (131) 
too moved

>  <fragmenstein_mode>  (131) 
expansion

>  <fragmenstein_error>  (131) 


$$$$
C34660-P54
     RDKit          3D

 45 46  0  0  0  0  0  0  0  0999 V2000
  -11.4351  -19.9442   32.1957 C   0  0  0  0  0  0  0  0  0  0  0  0
  -11.4995  -20.8659   30.9844 C   0  0  0  0  0  0  0  0  0  0  0  0
  -11.2847  -20.1007   29.6636 C   0  0  0  0  0  0  0  0  0  0  0  0
  -11.4228  -20.8917   28.4564 N   0  0  0  0  0  0  0  0  0  0  0  0
  -10.6132  -22.0926   27.9541 C   0  0  0  0  0  0  0  0  0  0  0  0
   -9.7545  -22.6888   28.4633 O   0  0  0  0  0  0  0  0  0  0  0  0
  -11.2169  -22.4888   26.5986 C   0  0  0  0  0  0  0  0  0  0  0  0
  -12.3255  -23.5080   26.7290 C   0  0  0  0  0  0  0  0  0  0  0  0
  -11.8694  -24.8823   27.0416 C   0  0  0  0  0  0  0  0  0  0  0  0
  -10.5605  -25.2380   27.2490 C   0  0  0  0  0  0  0  0  0  0  0  0
  -10.1754  -26.4483   27.6446 N   0  0  0  0  0  0  0  0  0  0  0  0
  -11.1469  -27.3340   27.8514 C   0  0  0  0  0  0  0  0  0  0  0  0
  -12.4491  -27.1219   27.6389 N   0  0  0  0  0  0  0  0  0  0  0  0
  -12.7829  -25.8911   27.2284 C   0  0  0  0  0  0  0  0  0  0  0  0
  -10.6104  -22.0038   31.0910 N   0  0  0  0  0  0  0  0  0  0  0  0
  -10.0492  -22.7328   32.3454 C   0  0  0  0  0  0  0  0  0  0  0  0
  -10.1574  -22.4779   33.4806 O   0  0  0  0  0  0  0  0  0  0  0  0
   -9.3619  -23.9948   31.8359 C   0  0  0  0  0  0  0  0  0  0  0  0
  -10.3755  -25.1022   31.6800 C   0  0  0  0  0  0  0  0  0  0  0  0
  -11.2866  -25.1146   30.6359 C   0  0  0  0  0  0  0  0  0  0  0  0
  -12.2822  -26.0883   30.6227 C   0  0  0  0  0  0  0  0  0  0  0  0
  -12.3446  -27.0369   31.6228 C   0  0  0  0  0  0  0  0  0  0  0  0
  -13.3076  -27.9645   31.6203 F   0  0  0  0  0  0  0  0  0  0  0  0
  -11.4107  -26.9900   32.6198 C   0  0  0  0  0  0  0  0  0  0  0  0
  -10.4452  -26.0306   32.6765 N   0  0  0  0  0  0  0  0  0  0  0  0
  -10.4444  -19.5002   32.3192 H   0  0  0  0  0  0  0  0  0  0  0  0
  -11.6768  -20.4819   33.1177 H   0  0  0  0  0  0  0  0  0  0  0  0
  -12.1632  -19.1364   32.1080 H   0  0  0  0  0  0  0  0  0  0  0  0
  -12.5022  -21.3014   30.9413 H   0  0  0  0  0  0  0  0  0  0  0  0
  -11.9927  -19.2856   29.5758 H   0  0  0  0  0  0  0  0  0  0  0  0
  -10.3049  -19.6468   29.6075 H   0  0  0  0  0  0  0  0  0  0  0  0
  -12.1477  -20.6741   27.7922 H   0  0  0  0  0  0  0  0  0  0  0  0
  -11.6309  -21.6111   26.1067 H   0  0  0  0  0  0  0  0  0  0  0  0
  -10.4222  -22.8533   25.9411 H   0  0  0  0  0  0  0  0  0  0  0  0
  -12.9166  -23.5223   25.8064 H   0  0  0  0  0  0  0  0  0  0  0  0
  -12.9849  -23.2233   27.5480 H   0  0  0  0  0  0  0  0  0  0  0  0
   -9.7303  -24.5592   27.1432 H   0  0  0  0  0  0  0  0  0  0  0  0
  -10.8558  -28.3168   28.2072 H   0  0  0  0  0  0  0  0  0  0  0  0
  -13.8491  -25.7290   27.0885 H   0  0  0  0  0  0  0  0  0  0  0  0
  -10.2548  -22.4510   30.2506 H   0  0  0  0  0  0  0  0  0  0  0  0
   -8.8436  -23.8121   30.8901 H   0  0  0  0  0  0  0  0  0  0  0  0
   -8.6010  -24.2819   32.5706 H   0  0  0  0  0  0  0  0  0  0  0  0
  -11.2644  -24.3574   29.8664 H   0  0  0  0  0  0  0  0  0  0  0  0
  -13.0487  -26.0971   29.8590 H   0  0  0  0  0  0  0  0  0  0  0  0
  -11.3954  -27.7296   33.4127 H   0  0  0  0  0  0  0  0  0  0  0  0
  1  2  1  0
  2  3  1  0
  3  4  1  0
  4  5  1  0
  5  6  2  0
  5  7  1  0
  7  8  1  0
  8  9  1  0
  9 10  2  0
 10 11  1  0
 11 12  2  0
 12 13  1  0
 13 14  2  0
  2 15  1  0
 15 16  1  0
 16 17  2  0
 16 18  1  0
 18 19  1  0
 19 20  2  0
 20 21  1  0
 21 22  2  0
 22 23  1  0
 22 24  1  0
 24 25  2  0
 14  9  1  0
 25 19  1  0
  1 26  1  0
  1 27  1  0
  1 28  1  0
  2 29  1  0
  3 30  1  0
  3 31  1  0
  4 32  1  0
  7 33  1  0
  7 34  1  0
  8 35  1  0
  8 36  1  0
 10 37  1  0
 12 38  1  0
 14 39  1  0
 15 40  1  0
 18 41  1  0
 18 42  1  0
 20 43  1  0
 21 44  1  0
 24 45  1  0
M  END
>  <Energy>  (132) 
52.390739715227916

>  <compound_id>  (132) 
34660

>  <target_id>  (132) 
1

>  <reference_id>  (132) 
54

>  <inspiration_ids>  (132) 
[82, 54]

>  <energy_score>  (132) 
-1.0967610881931478

>  <distance_score>  (132) 
2.5710607702469837

>  <path>  (132) 
/opt/xchem-fragalysis-2/maxwin/BulkDock/SCRATCH/511015/C34660-P54/C34660-P54.minimised.mol

>  <scratch_subdir>  (132) 
/opt/xchem-fragalysis-2/maxwin/BulkDock/SCRATCH/511015/C34660-P54

>  <fragmenstein_runtime>  (132) 
6.265147686004639

>  <fragmenstein_outcome>  (132) 
too moved

>  <fragmenstein_mode>  (132) 
expansion

>  <fragmenstein_error>  (132) 


$$$$
C34661-P82
     RDKit          3D

 38 40  0  0  0  0  0  0  0  0999 V2000
  -14.4670  -22.8528   32.3952 C   0  0  0  0  0  0  0  0  0  0  0  0
  -12.9634  -22.9098   32.5704 C   0  0  0  0  0  0  0  0  0  0  0  0
  -12.1301  -21.9939   31.6398 C   0  0  0  0  0  0  0  0  0  0  0  0
  -11.3616  -21.2235   32.1364 O   0  0  0  0  0  0  0  0  0  0  0  0
  -12.3760  -22.3140   30.2690 N   0  0  0  0  0  0  0  0  0  0  0  0
  -11.7181  -21.8886   29.0732 C   0  0  0  0  0  0  0  0  0  0  0  0
  -11.4949  -23.1117   28.2638 C   0  0  0  0  0  0  0  0  0  0  0  0
  -12.2658  -23.6055   27.2021 C   0  0  0  0  0  0  0  0  0  0  0  0
  -11.8635  -24.9080   27.0704 C   0  0  0  0  0  0  0  0  0  0  0  0
  -12.3948  -26.0394   26.3632 C   0  0  0  0  0  0  0  0  0  0  0  0
  -11.6256  -27.1398   26.0244 C   0  0  0  0  0  0  0  0  0  0  0  0
  -12.2386  -28.2005   25.3720 C   0  0  0  0  0  0  0  0  0  0  0  0
  -13.5919  -28.1183   25.0676 C   0  0  0  0  0  0  0  0  0  0  0  0
  -14.2828  -26.9764   25.4321 C   0  0  0  0  0  0  0  0  0  0  0  0
  -13.7181  -25.9437   26.0842 N   0  0  0  0  0  0  0  0  0  0  0  0
  -10.7881  -25.1280   27.8612 O   0  0  0  0  0  0  0  0  0  0  0  0
  -10.5549  -24.0007   28.6022 N   0  0  0  0  0  0  0  0  0  0  0  0
  -12.2664  -24.2506   32.4729 C   0  0  0  0  0  0  0  0  0  0  0  0
  -11.4185  -24.6387   33.4747 C   0  0  0  0  0  0  0  0  0  0  0  0
  -10.3545  -25.4381   33.2936 N   0  0  0  0  0  0  0  0  0  0  0  0
  -10.1883  -25.8958   32.0432 C   0  0  0  0  0  0  0  0  0  0  0  0
  -11.0598  -25.7726   31.0460 N   0  0  0  0  0  0  0  0  0  0  0  0
  -12.0885  -24.9500   31.2952 C   0  0  0  0  0  0  0  0  0  0  0  0
  -14.9652  -23.5586   33.0678 H   0  0  0  0  0  0  0  0  0  0  0  0
  -14.7939  -23.0595   31.3808 H   0  0  0  0  0  0  0  0  0  0  0  0
  -14.8318  -21.8468   32.6323 H   0  0  0  0  0  0  0  0  0  0  0  0
  -12.7877  -22.5169   33.5812 H   0  0  0  0  0  0  0  0  0  0  0  0
  -13.1626  -22.9565   30.2143 H   0  0  0  0  0  0  0  0  0  0  0  0
  -10.7962  -21.3865   29.3396 H   0  0  0  0  0  0  0  0  0  0  0  0
  -12.3647  -21.1875   28.5763 H   0  0  0  0  0  0  0  0  0  0  0  0
  -13.1007  -23.1645   26.6904 H   0  0  0  0  0  0  0  0  0  0  0  0
  -10.5693  -27.1730   26.2581 H   0  0  0  0  0  0  0  0  0  0  0  0
  -11.6662  -29.0848   25.1027 H   0  0  0  0  0  0  0  0  0  0  0  0
  -14.0976  -28.9298   24.5539 H   0  0  0  0  0  0  0  0  0  0  0  0
  -15.3390  -26.8626   25.2019 H   0  0  0  0  0  0  0  0  0  0  0  0
  -11.5324  -24.2227   34.4670 H   0  0  0  0  0  0  0  0  0  0  0  0
   -9.2627  -26.3949   31.7973 H   0  0  0  0  0  0  0  0  0  0  0  0
  -12.7418  -24.8321   30.4404 H   0  0  0  0  0  0  0  0  0  0  0  0
  1  2  1  0
  2  3  1  0
  3  4  2  0
  3  5  1  0
  5  6  1  0
  6  7  1  0
  7  8  1  0
  8  9  2  0
  9 10  1  0
 10 11  2  0
 11 12  1  0
 12 13  2  0
 13 14  1  0
 14 15  2  0
  9 16  1  0
 16 17  1  0
  2 18  1  0
 18 19  2  0
 19 20  1  0
 20 21  2  0
 21 22  1  0
 22 23  2  0
 17  7  2  0
 23 18  1  0
 15 10  1  0
  1 24  1  0
  1 25  1  0
  1 26  1  0
  2 27  1  0
  5 28  1  0
  6 29  1  0
  6 30  1  0
  8 31  1  0
 11 32  1  0
 12 33  1  0
 13 34  1  0
 14 35  1  0
 19 36  1  0
 21 37  1  0
 23 38  1  0
M  END
>  <Energy>  (133) 
49.282766298067166

>  <compound_id>  (133) 
34661

>  <target_id>  (133) 
1

>  <reference_id>  (133) 
82

>  <inspiration_ids>  (133) 
[82, 54]

>  <energy_score>  (133) 
0.8842838236570856

>  <distance_score>  (133) 
4.322798454838658

>  <path>  (133) 
/opt/xchem-fragalysis-2/maxwin/BulkDock/SCRATCH/511015/C34661-P82/C34661-P82.minimised.mol

>  <scratch_subdir>  (133) 
/opt/xchem-fragalysis-2/maxwin/BulkDock/SCRATCH/511015/C34661-P82

>  <fragmenstein_runtime>  (133) 
7.074567079544067

>  <fragmenstein_outcome>  (133) 
too moved

>  <fragmenstein_mode>  (133) 
expansion

>  <fragmenstein_error>  (133) 


$$$$
C34661-P54
     RDKit          3D

 38 40  0  0  0  0  0  0  0  0999 V2000
  -12.3944  -20.4111   34.3312 C   0  0  0  0  0  0  0  0  0  0  0  0
  -11.0196  -20.9640   33.9917 C   0  0  0  0  0  0  0  0  0  0  0  0
  -10.3873  -20.2700   32.8206 C   0  0  0  0  0  0  0  0  0  0  0  0
   -9.2673  -19.9693   32.8676 O   0  0  0  0  0  0  0  0  0  0  0  0
  -11.3957  -20.1714   31.6698 N   0  0  0  0  0  0  0  0  0  0  0  0
  -11.2172  -19.7761   30.3232 C   0  0  0  0  0  0  0  0  0  0  0  0
  -10.7957  -21.0606   29.7000 C   0  0  0  0  0  0  0  0  0  0  0  0
  -11.3532  -21.6624   28.5876 C   0  0  0  0  0  0  0  0  0  0  0  0
  -10.8949  -22.9465   28.6528 C   0  0  0  0  0  0  0  0  0  0  0  0
  -11.3242  -24.1303   28.0040 C   0  0  0  0  0  0  0  0  0  0  0  0
  -10.5272  -25.2453   27.8592 C   0  0  0  0  0  0  0  0  0  0  0  0
  -11.0699  -26.3345   27.2037 C   0  0  0  0  0  0  0  0  0  0  0  0
  -12.3716  -26.2542   26.7214 C   0  0  0  0  0  0  0  0  0  0  0  0
  -13.0916  -25.0909   26.9224 C   0  0  0  0  0  0  0  0  0  0  0  0
  -12.5963  -24.0261   27.5582 N   0  0  0  0  0  0  0  0  0  0  0  0
   -9.9394  -23.0642   29.5864 O   0  0  0  0  0  0  0  0  0  0  0  0
   -9.9099  -21.8914   30.2770 N   0  0  0  0  0  0  0  0  0  0  0  0
  -10.5739  -22.3879   33.6880 C   0  0  0  0  0  0  0  0  0  0  0  0
   -9.5543  -22.9695   34.4041 C   0  0  0  0  0  0  0  0  0  0  0  0
   -8.8976  -24.0925   34.0611 N   0  0  0  0  0  0  0  0  0  0  0  0
   -9.1965  -24.5892   32.8610 C   0  0  0  0  0  0  0  0  0  0  0  0
  -10.1854  -24.1836   32.0742 N   0  0  0  0  0  0  0  0  0  0  0  0
  -10.8227  -23.0641   32.5063 C   0  0  0  0  0  0  0  0  0  0  0  0
  -12.3026  -19.3374   34.5315 H   0  0  0  0  0  0  0  0  0  0  0  0
  -12.8337  -20.8743   35.2126 H   0  0  0  0  0  0  0  0  0  0  0  0
  -13.1300  -20.4572   33.5443 H   0  0  0  0  0  0  0  0  0  0  0  0
  -10.4585  -20.6726   34.8755 H   0  0  0  0  0  0  0  0  0  0  0  0
  -12.2670  -20.6010   31.9472 H   0  0  0  0  0  0  0  0  0  0  0  0
  -10.4827  -18.9871   30.2306 H   0  0  0  0  0  0  0  0  0  0  0  0
  -12.1616  -19.4688   29.9039 H   0  0  0  0  0  0  0  0  0  0  0  0
  -12.0941  -21.2978   27.9037 H   0  0  0  0  0  0  0  0  0  0  0  0
   -9.5043  -25.2445   28.2128 H   0  0  0  0  0  0  0  0  0  0  0  0
  -10.4820  -27.2356   27.0519 H   0  0  0  0  0  0  0  0  0  0  0  0
  -12.8176  -27.0906   26.1926 H   0  0  0  0  0  0  0  0  0  0  0  0
  -14.1133  -24.9949   26.5676 H   0  0  0  0  0  0  0  0  0  0  0  0
   -9.1865  -22.4916   35.3014 H   0  0  0  0  0  0  0  0  0  0  0  0
   -8.5558  -25.3737   32.5128 H   0  0  0  0  0  0  0  0  0  0  0  0
  -11.5914  -22.7290   31.8217 H   0  0  0  0  0  0  0  0  0  0  0  0
  1  2  1  0
  2  3  1  0
  3  4  2  0
  3  5  1  0
  5  6  1  0
  6  7  1  0
  7  8  1  0
  8  9  2  0
  9 10  1  0
 10 11  2  0
 11 12  1  0
 12 13  2  0
 13 14  1  0
 14 15  2  0
  9 16  1  0
 16 17  1  0
  2 18  1  0
 18 19  2  0
 19 20  1  0
 20 21  2  0
 21 22  1  0
 22 23  2  0
 17  7  2  0
 23 18  1  0
 15 10  1  0
  1 24  1  0
  1 25  1  0
  1 26  1  0
  2 27  1  0
  5 28  1  0
  6 29  1  0
  6 30  1  0
  8 31  1  0
 11 32  1  0
 12 33  1  0
 13 34  1  0
 14 35  1  0
 19 36  1  0
 21 37  1  0
 23 38  1  0
M  END
>  <Energy>  (134) 
79.690994112916968

>  <compound_id>  (134) 
34661

>  <target_id>  (134) 
1

>  <reference_id>  (134) 
54

>  <inspiration_ids>  (134) 
[82, 54]

>  <energy_score>  (134) 
30.84195784013471

>  <distance_score>  (134) 
2.895981620637672

>  <path>  (134) 
/opt/xchem-fragalysis-2/maxwin/BulkDock/SCRATCH/511015/C34661-P54/C34661-P54.minimised.mol

>  <scratch_subdir>  (134) 
/opt/xchem-fragalysis-2/maxwin/BulkDock/SCRATCH/511015/C34661-P54

>  <fragmenstein_runtime>  (134) 
4.361974716186523

>  <fragmenstein_outcome>  (134) 
too moved

>  <fragmenstein_mode>  (134) 
expansion

>  <fragmenstein_error>  (134) 


$$$$
C34662-P82
     RDKit          3D

 47 49  0  0  0  0  0  0  0  0999 V2000
  -12.6251  -23.1559   25.0997 C   0  0  0  0  0  0  0  0  0  0  0  0
  -12.8846  -24.2376   26.1186 C   0  0  0  0  0  0  0  0  0  0  0  0
  -12.7753  -24.0960   27.7182 C   0  0  0  0  0  0  0  0  0  0  0  0
  -13.1356  -25.1109   28.2617 O   0  0  0  0  0  0  0  0  0  0  0  0
  -12.1979  -22.8890   28.2617 N   0  0  0  0  0  0  0  0  0  0  0  0
  -11.7700  -22.5490   29.6399 C   0  0  0  0  0  0  0  0  0  0  0  0
  -12.3728  -23.0149   31.0060 C   0  0  0  0  0  0  0  0  0  0  0  0
  -12.7990  -24.4232   31.0150 C   0  0  0  0  0  0  0  0  0  0  0  0
  -11.6378  -25.3494   30.7990 C   0  0  0  0  0  0  0  0  0  0  0  0
  -11.0482  -25.6074   32.0966 N   0  0  0  0  0  0  0  0  0  0  0  0
  -10.7150  -26.9122   32.4175 C   0  0  0  0  0  0  0  0  0  0  0  0
  -10.6149  -27.5738   33.6904 C   0  0  0  0  0  0  0  0  0  0  0  0
   -9.9834  -29.2831   33.8500 C   0  0  0  0  0  0  0  0  0  0  0  0
   -9.9521  -30.0739   32.8046 N   0  0  0  0  0  0  0  0  0  0  0  0
  -10.5178  -29.3233   31.7768 C   0  0  0  0  0  0  0  0  0  0  0  0
  -10.6004  -27.9108   31.4433 C   0  0  0  0  0  0  0  0  0  0  0  0
  -10.8093  -24.3774   32.8599 C   0  0  0  0  0  0  0  0  0  0  0  0
  -11.4768  -23.0105   32.2963 C   0  0  0  0  0  0  0  0  0  0  0  0
  -11.7465  -25.2650   25.9803 C   0  0  0  0  0  0  0  0  0  0  0  0
  -12.0156  -26.5821   26.2692 C   0  0  0  0  0  0  0  0  0  0  0  0
  -11.3989  -27.1838   27.2898 N   0  0  0  0  0  0  0  0  0  0  0  0
  -10.4874  -26.4408   27.9613 C   0  0  0  0  0  0  0  0  0  0  0  0
  -10.0167  -25.2604   27.6196 N   0  0  0  0  0  0  0  0  0  0  0  0
  -10.6052  -24.7424   26.5570 C   0  0  0  0  0  0  0  0  0  0  0  0
  -13.5556  -22.8953   24.5849 H   0  0  0  0  0  0  0  0  0  0  0  0
  -11.9292  -23.4472   24.3087 H   0  0  0  0  0  0  0  0  0  0  0  0
  -12.1880  -22.2739   25.5489 H   0  0  0  0  0  0  0  0  0  0  0  0
  -13.8400  -24.7211   25.8806 H   0  0  0  0  0  0  0  0  0  0  0  0
  -11.9417  -22.2745   27.5003 H   0  0  0  0  0  0  0  0  0  0  0  0
  -10.7797  -22.9673   29.6003 H   0  0  0  0  0  0  0  0  0  0  0  0
  -11.6531  -21.4621   29.6604 H   0  0  0  0  0  0  0  0  0  0  0  0
  -13.2431  -22.3722   31.1911 H   0  0  0  0  0  0  0  0  0  0  0  0
  -13.5123  -24.5742   30.2525 H   0  0  0  0  0  0  0  0  0  0  0  0
  -13.3081  -24.6043   31.9672 H   0  0  0  0  0  0  0  0  0  0  0  0
  -12.0471  -26.2206   30.2970 H   0  0  0  0  0  0  0  0  0  0  0  0
  -10.8639  -24.9475   30.1469 H   0  0  0  0  0  0  0  0  0  0  0  0
  -10.7206  -26.9399   34.5569 H   0  0  0  0  0  0  0  0  0  0  0  0
   -9.5675  -29.6438   34.7458 H   0  0  0  0  0  0  0  0  0  0  0  0
  -11.2630  -29.9694   31.2884 H   0  0  0  0  0  0  0  0  0  0  0  0
  -10.8835  -27.7072   30.4279 H   0  0  0  0  0  0  0  0  0  0  0  0
   -9.7271  -24.2179   32.8999 H   0  0  0  0  0  0  0  0  0  0  0  0
  -11.1926  -24.5312   33.8731 H   0  0  0  0  0  0  0  0  0  0  0  0
  -10.7469  -22.2064   32.2419 H   0  0  0  0  0  0  0  0  0  0  0  0
  -12.1377  -22.6827   33.1146 H   0  0  0  0  0  0  0  0  0  0  0  0
  -12.8915  -27.0973   25.8899 H   0  0  0  0  0  0  0  0  0  0  0  0
  -10.0573  -26.8254   28.8712 H   0  0  0  0  0  0  0  0  0  0  0  0
  -10.3359  -23.7218   26.4033 H   0  0  0  0  0  0  0  0  0  0  0  0
  1  2  1  0
  2  3  1  0
  3  4  2  0
  3  5  1  0
  5  6  1  0
  6  7  1  0
  7  8  1  0
  8  9  1  0
  9 10  1  0
 10 11  1  0
 11 12  2  0
 12 13  1  0
 13 14  2  0
 14 15  1  0
 15 16  2  0
 10 17  1  0
 17 18  1  0
  2 19  1  0
 19 20  2  0
 20 21  1  0
 21 22  2  0
 22 23  1  0
 23 24  2  0
 18  7  1  0
 24 19  1  0
 16 11  1  0
  1 25  1  0
  1 26  1  0
  1 27  1  0
  2 28  1  0
  5 29  1  0
  6 30  1  0
  6 31  1  0
  7 32  1  0
  8 33  1  0
  8 34  1  0
  9 35  1  0
  9 36  1  0
 12 37  1  0
 13 38  1  0
 15 39  1  0
 16 40  1  0
 17 41  1  0
 17 42  1  0
 18 43  1  0
 18 44  1  0
 20 45  1  0
 22 46  1  0
 24 47  1  0
M  END
>  <Energy>  (135) 
211.35387420965623

>  <compound_id>  (135) 
34662

>  <target_id>  (135) 
1

>  <reference_id>  (135) 
82

>  <inspiration_ids>  (135) 
[82, 54]

>  <energy_score>  (135) 
161.00211660750188

>  <distance_score>  (135) 
2.4796331618218588

>  <path>  (135) 
/opt/xchem-fragalysis-2/maxwin/BulkDock/SCRATCH/511015/C34662-P82/C34662-P82.minimised.mol

>  <scratch_subdir>  (135) 
/opt/xchem-fragalysis-2/maxwin/BulkDock/SCRATCH/511015/C34662-P82

>  <fragmenstein_runtime>  (135) 
12.37355375289917

>  <fragmenstein_outcome>  (135) 
too moved

>  <fragmenstein_mode>  (135) 
expansion

>  <fragmenstein_error>  (135) 


$$$$
C34662-P54
     RDKit          3D

 47 49  0  0  0  0  0  0  0  0999 V2000
  -13.4212  -23.0525   25.7742 C   0  0  0  0  0  0  0  0  0  0  0  0
  -13.3145  -24.0570   26.9082 C   0  0  0  0  0  0  0  0  0  0  0  0
  -13.3409  -23.5888   28.3869 C   0  0  0  0  0  0  0  0  0  0  0  0
  -14.0073  -24.1895   29.1426 O   0  0  0  0  0  0  0  0  0  0  0  0
  -12.3466  -22.3991   28.6322 N   0  0  0  0  0  0  0  0  0  0  0  0
  -11.8991  -21.7693   29.8891 C   0  0  0  0  0  0  0  0  0  0  0  0
  -11.1562  -22.8437   30.6483 C   0  0  0  0  0  0  0  0  0  0  0  0
   -9.9492  -23.2808   29.8490 C   0  0  0  0  0  0  0  0  0  0  0  0
   -9.6771  -24.7190   30.1712 C   0  0  0  0  0  0  0  0  0  0  0  0
  -10.1680  -25.1115   31.5030 N   0  0  0  0  0  0  0  0  0  0  0  0
  -11.2036  -26.0571   31.5756 C   0  0  0  0  0  0  0  0  0  0  0  0
  -11.3342  -26.9445   32.6523 C   0  0  0  0  0  0  0  0  0  0  0  0
  -12.3411  -27.9060   32.6933 C   0  0  0  0  0  0  0  0  0  0  0  0
  -13.2664  -28.0513   31.7352 N   0  0  0  0  0  0  0  0  0  0  0  0
  -13.1236  -27.2462   30.6713 C   0  0  0  0  0  0  0  0  0  0  0  0
  -12.1246  -26.2830   30.5558 C   0  0  0  0  0  0  0  0  0  0  0  0
   -9.8948  -24.0312   32.4879 C   0  0  0  0  0  0  0  0  0  0  0  0
  -10.6340  -22.7048   32.0828 C   0  0  0  0  0  0  0  0  0  0  0  0
  -12.1292  -24.9491   26.8178 C   0  0  0  0  0  0  0  0  0  0  0  0
  -12.2346  -26.2915   27.1133 C   0  0  0  0  0  0  0  0  0  0  0  0
  -11.1815  -27.0988   27.2716 N   0  0  0  0  0  0  0  0  0  0  0  0
   -9.9894  -26.5207   27.1275 C   0  0  0  0  0  0  0  0  0  0  0  0
   -9.7854  -25.2240   26.8808 N   0  0  0  0  0  0  0  0  0  0  0  0
  -10.8580  -24.4622   26.6832 C   0  0  0  0  0  0  0  0  0  0  0  0
  -13.4954  -23.5666   24.8125 H   0  0  0  0  0  0  0  0  0  0  0  0
  -12.5650  -22.3773   25.7181 H   0  0  0  0  0  0  0  0  0  0  0  0
  -14.3378  -22.4669   25.8480 H   0  0  0  0  0  0  0  0  0  0  0  0
  -14.2174  -24.6776   26.7960 H   0  0  0  0  0  0  0  0  0  0  0  0
  -11.8721  -22.1693   27.7664 H   0  0  0  0  0  0  0  0  0  0  0  0
  -11.2735  -20.9075   29.6408 H   0  0  0  0  0  0  0  0  0  0  0  0
  -12.7856  -21.4398   30.4333 H   0  0  0  0  0  0  0  0  0  0  0  0
  -11.8813  -23.6521   30.6791 H   0  0  0  0  0  0  0  0  0  0  0  0
   -9.0766  -22.6857   30.1355 H   0  0  0  0  0  0  0  0  0  0  0  0
  -10.0226  -23.1390   28.7722 H   0  0  0  0  0  0  0  0  0  0  0  0
  -10.1004  -25.3335   29.3895 H   0  0  0  0  0  0  0  0  0  0  0  0
   -8.5913  -24.8107   30.1354 H   0  0  0  0  0  0  0  0  0  0  0  0
  -10.5823  -26.9593   33.4289 H   0  0  0  0  0  0  0  0  0  0  0  0
  -12.4068  -28.6112   33.5165 H   0  0  0  0  0  0  0  0  0  0  0  0
  -13.8584  -27.3789   29.8832 H   0  0  0  0  0  0  0  0  0  0  0  0
  -12.1188  -25.6781   29.6668 H   0  0  0  0  0  0  0  0  0  0  0  0
   -8.8160  -23.8228   32.4443 H   0  0  0  0  0  0  0  0  0  0  0  0
  -10.0397  -24.3121   33.5304 H   0  0  0  0  0  0  0  0  0  0  0  0
   -9.9260  -21.8694   32.1584 H   0  0  0  0  0  0  0  0  0  0  0  0
  -11.4251  -22.4561   32.7810 H   0  0  0  0  0  0  0  0  0  0  0  0
  -13.1994  -26.7634   27.2840 H   0  0  0  0  0  0  0  0  0  0  0  0
   -9.1128  -27.1574   27.2024 H   0  0  0  0  0  0  0  0  0  0  0  0
  -10.6366  -23.4259   26.4511 H   0  0  0  0  0  0  0  0  0  0  0  0
  1  2  1  0
  2  3  1  0
  3  4  2  0
  3  5  1  0
  5  6  1  0
  6  7  1  0
  7  8  1  0
  8  9  1  0
  9 10  1  0
 10 11  1  0
 11 12  2  0
 12 13  1  0
 13 14  2  0
 14 15  1  0
 15 16  2  0
 10 17  1  0
 17 18  1  0
  2 19  1  0
 19 20  2  0
 20 21  1  0
 21 22  2  0
 22 23  1  0
 23 24  2  0
 18  7  1  0
 24 19  1  0
 16 11  1  0
  1 25  1  0
  1 26  1  0
  1 27  1  0
  2 28  1  0
  5 29  1  0
  6 30  1  0
  6 31  1  0
  7 32  1  0
  8 33  1  0
  8 34  1  0
  9 35  1  0
  9 36  1  0
 12 37  1  0
 13 38  1  0
 15 39  1  0
 16 40  1  0
 17 41  1  0
 17 42  1  0
 18 43  1  0
 18 44  1  0
 20 45  1  0
 22 46  1  0
 24 47  1  0
M  END
>  <Energy>  (136) 
67.350115078225627

>  <compound_id>  (136) 
34662

>  <target_id>  (136) 
1

>  <reference_id>  (136) 
54

>  <inspiration_ids>  (136) 
[82, 54]

>  <energy_score>  (136) 
18.56520417862305

>  <distance_score>  (136) 
2.741639299579757

>  <path>  (136) 
/opt/xchem-fragalysis-2/maxwin/BulkDock/SCRATCH/511015/C34662-P54/C34662-P54.minimised.mol

>  <scratch_subdir>  (136) 
/opt/xchem-fragalysis-2/maxwin/BulkDock/SCRATCH/511015/C34662-P54

>  <fragmenstein_runtime>  (136) 
4.75088906288147

>  <fragmenstein_outcome>  (136) 
too moved

>  <fragmenstein_mode>  (136) 
expansion

>  <fragmenstein_error>  (136) 


$$$$
C34663-P82
     RDKit          3D

 47 49  0  0  0  0  0  0  0  0999 V2000
  -11.4030  -21.0681   30.4670 O   0  0  0  0  0  0  0  0  0  0  0  0
  -12.0389  -21.9940   30.0589 C   0  0  0  0  0  0  0  0  0  0  0  0
  -11.3882  -22.7810   28.9073 C   0  0  0  0  0  0  0  0  0  0  0  0
  -12.1049  -22.9947   27.5887 C   0  0  0  0  0  0  0  0  0  0  0  0
  -12.0611  -24.3688   27.0055 C   0  0  0  0  0  0  0  0  0  0  0  0
  -13.0690  -24.8261   26.1814 C   0  0  0  0  0  0  0  0  0  0  0  0
  -13.1565  -26.0842   25.7095 N   0  0  0  0  0  0  0  0  0  0  0  0
  -12.1328  -26.8832   26.0186 C   0  0  0  0  0  0  0  0  0  0  0  0
  -11.0587  -26.5290   26.7254 N   0  0  0  0  0  0  0  0  0  0  0  0
  -11.0420  -25.2673   27.1956 C   0  0  0  0  0  0  0  0  0  0  0  0
  -13.3274  -22.4762   30.4335 N   0  0  0  0  0  0  0  0  0  0  0  0
  -14.3239  -21.9430   31.3626 C   0  0  0  0  0  0  0  0  0  0  0  0
  -14.0879  -21.8365   32.8681 C   0  0  0  0  0  0  0  0  0  0  0  0
  -14.5021  -23.1568   33.4868 C   0  0  0  0  0  0  0  0  0  0  0  0
  -13.5480  -24.2382   33.0458 C   0  0  0  0  0  0  0  0  0  0  0  0
  -12.2493  -23.7966   32.6180 N   0  0  0  0  0  0  0  0  0  0  0  0
  -11.4123  -24.6901   31.9853 C   0  0  0  0  0  0  0  0  0  0  0  0
  -10.1039  -24.8863   32.3594 C   0  0  0  0  0  0  0  0  0  0  0  0
   -9.3444  -25.7918   31.6667 C   0  0  0  0  0  0  0  0  0  0  0  0
   -9.7675  -26.4990   30.6038 N   0  0  0  0  0  0  0  0  0  0  0  0
  -11.0204  -26.2988   30.2286 C   0  0  0  0  0  0  0  0  0  0  0  0
  -11.8393  -25.3942   30.8639 C   0  0  0  0  0  0  0  0  0  0  0  0
  -11.7329  -22.6711   33.3111 C   0  0  0  0  0  0  0  0  0  0  0  0
  -12.6757  -21.4908   33.3100 C   0  0  0  0  0  0  0  0  0  0  0  0
  -10.9796  -23.6919   29.3247 H   0  0  0  0  0  0  0  0  0  0  0  0
  -10.5244  -22.1758   28.6200 H   0  0  0  0  0  0  0  0  0  0  0  0
  -11.7049  -22.3030   26.8442 H   0  0  0  0  0  0  0  0  0  0  0  0
  -13.1365  -22.7235   27.7056 H   0  0  0  0  0  0  0  0  0  0  0  0
  -13.8762  -24.1709   25.8650 H   0  0  0  0  0  0  0  0  0  0  0  0
  -12.1708  -27.9042   25.6554 H   0  0  0  0  0  0  0  0  0  0  0  0
  -10.1547  -25.0214   27.7714 H   0  0  0  0  0  0  0  0  0  0  0  0
  -13.5177  -23.3385   29.9301 H   0  0  0  0  0  0  0  0  0  0  0  0
  -14.7507  -21.0157   30.9922 H   0  0  0  0  0  0  0  0  0  0  0  0
  -15.1911  -22.6003   31.2155 H   0  0  0  0  0  0  0  0  0  0  0  0
  -14.7695  -21.0646   33.2492 H   0  0  0  0  0  0  0  0  0  0  0  0
  -15.5289  -23.4261   33.2031 H   0  0  0  0  0  0  0  0  0  0  0  0
  -14.5593  -23.1033   34.5635 H   0  0  0  0  0  0  0  0  0  0  0  0
  -14.0089  -24.5649   32.1428 H   0  0  0  0  0  0  0  0  0  0  0  0
  -13.4683  -25.0100   33.8107 H   0  0  0  0  0  0  0  0  0  0  0  0
   -9.6445  -24.3596   33.1700 H   0  0  0  0  0  0  0  0  0  0  0  0
   -8.3315  -25.9808   31.9957 H   0  0  0  0  0  0  0  0  0  0  0  0
  -11.3658  -26.8870   29.3891 H   0  0  0  0  0  0  0  0  0  0  0  0
  -12.8122  -25.2124   30.4449 H   0  0  0  0  0  0  0  0  0  0  0  0
  -10.8392  -22.3562   32.7827 H   0  0  0  0  0  0  0  0  0  0  0  0
  -11.5581  -22.9802   34.3351 H   0  0  0  0  0  0  0  0  0  0  0  0
  -12.6999  -21.0511   34.3137 H   0  0  0  0  0  0  0  0  0  0  0  0
  -12.2205  -20.7114   32.7102 H   0  0  0  0  0  0  0  0  0  0  0  0
  1  2  2  0
  2  3  1  0
  3  4  1  0
  4  5  1  0
  5  6  2  0
  6  7  1  0
  7  8  2  0
  8  9  1  0
  9 10  2  0
  2 11  1  0
 11 12  1  0
 12 13  1  0
 13 14  1  0
 14 15  1  0
 15 16  1  0
 16 17  1  0
 17 18  2  0
 18 19  1  0
 19 20  2  0
 20 21  1  0
 21 22  2  0
 16 23  1  0
 23 24  1  0
 10  5  1  0
 24 13  1  0
 22 17  1  0
  3 25  1  0
  3 26  1  0
  4 27  1  0
  4 28  1  0
  6 29  1  0
  8 30  1  0
 10 31  1  0
 11 32  1  0
 12 33  1  0
 12 34  1  0
 13 35  1  0
 14 36  1  0
 14 37  1  0
 15 38  1  0
 15 39  1  0
 18 40  1  0
 19 41  1  0
 21 42  1  0
 22 43  1  0
 23 44  1  0
 23 45  1  0
 24 46  1  0
 24 47  1  0
M  END
>  <Energy>  (137) 
36.567674158239974

>  <compound_id>  (137) 
34663

>  <target_id>  (137) 
1

>  <reference_id>  (137) 
82

>  <inspiration_ids>  (137) 
[82, 54]

>  <energy_score>  (137) 
17.186358871181397

>  <distance_score>  (137) 
3.881787712731036

>  <path>  (137) 
/opt/xchem-fragalysis-2/maxwin/BulkDock/SCRATCH/511015/C34663-P82/C34663-P82.minimised.mol

>  <scratch_subdir>  (137) 
/opt/xchem-fragalysis-2/maxwin/BulkDock/SCRATCH/511015/C34663-P82

>  <fragmenstein_runtime>  (137) 
13.287820816040039

>  <fragmenstein_outcome>  (137) 
too moved

>  <fragmenstein_mode>  (137) 
expansion

>  <fragmenstein_error>  (137) 


$$$$
C34663-P54
     RDKit          3D

 47 49  0  0  0  0  0  0  0  0999 V2000
  -15.1551  -25.0784   29.2427 O   0  0  0  0  0  0  0  0  0  0  0  0
  -14.3968  -25.6615   28.5807 C   0  0  0  0  0  0  0  0  0  0  0  0
  -14.6565  -25.8452   27.0853 C   0  0  0  0  0  0  0  0  0  0  0  0
  -13.4844  -25.7160   26.1092 C   0  0  0  0  0  0  0  0  0  0  0  0
  -12.4376  -24.7091   26.4218 C   0  0  0  0  0  0  0  0  0  0  0  0
  -11.1470  -25.0962   26.7166 C   0  0  0  0  0  0  0  0  0  0  0  0
  -10.1773  -24.2346   27.0255 N   0  0  0  0  0  0  0  0  0  0  0  0
  -10.5169  -22.9378   27.0097 C   0  0  0  0  0  0  0  0  0  0  0  0
  -11.7184  -22.4477   26.7157 N   0  0  0  0  0  0  0  0  0  0  0  0
  -12.6567  -23.3490   26.3966 C   0  0  0  0  0  0  0  0  0  0  0  0
  -13.0372  -26.2885   28.9379 N   0  0  0  0  0  0  0  0  0  0  0  0
  -12.2874  -26.2478   30.1529 C   0  0  0  0  0  0  0  0  0  0  0  0
  -11.6309  -24.8849   30.4613 C   0  0  0  0  0  0  0  0  0  0  0  0
  -10.1504  -24.9387   30.1687 C   0  0  0  0  0  0  0  0  0  0  0  0
   -9.4263  -23.6114   30.1310 C   0  0  0  0  0  0  0  0  0  0  0  0
  -10.1450  -22.6257   30.9073 N   0  0  0  0  0  0  0  0  0  0  0  0
   -9.9231  -22.5527   32.2721 C   0  0  0  0  0  0  0  0  0  0  0  0
  -10.5073  -21.5507   33.0408 C   0  0  0  0  0  0  0  0  0  0  0  0
  -10.3458  -21.5809   34.4051 C   0  0  0  0  0  0  0  0  0  0  0  0
   -9.5965  -22.4948   35.0570 N   0  0  0  0  0  0  0  0  0  0  0  0
   -9.0357  -23.4346   34.2895 C   0  0  0  0  0  0  0  0  0  0  0  0
   -9.1321  -23.4852   32.9295 C   0  0  0  0  0  0  0  0  0  0  0  0
  -11.5085  -22.3565   30.4384 C   0  0  0  0  0  0  0  0  0  0  0  0
  -12.1293  -23.6064   29.8194 C   0  0  0  0  0  0  0  0  0  0  0  0
  -15.3946  -25.0773   26.8138 H   0  0  0  0  0  0  0  0  0  0  0  0
  -15.1524  -26.8129   26.9456 H   0  0  0  0  0  0  0  0  0  0  0  0
  -13.8923  -25.5023   25.1144 H   0  0  0  0  0  0  0  0  0  0  0  0
  -13.0186  -26.7057   26.0054 H   0  0  0  0  0  0  0  0  0  0  0  0
  -10.8398  -26.1377   26.7258 H   0  0  0  0  0  0  0  0  0  0  0  0
   -9.7621  -22.2292   27.3148 H   0  0  0  0  0  0  0  0  0  0  0  0
  -13.6161  -22.9299   26.1078 H   0  0  0  0  0  0  0  0  0  0  0  0
  -12.6791  -26.7919   28.1414 H   0  0  0  0  0  0  0  0  0  0  0  0
  -12.9930  -26.5034   30.9496 H   0  0  0  0  0  0  0  0  0  0  0  0
  -11.5508  -27.0577   30.1201 H   0  0  0  0  0  0  0  0  0  0  0  0
  -11.6889  -24.7743   31.5320 H   0  0  0  0  0  0  0  0  0  0  0  0
   -9.9961  -25.4320   29.2136 H   0  0  0  0  0  0  0  0  0  0  0  0
   -9.7249  -25.5199   30.9751 H   0  0  0  0  0  0  0  0  0  0  0  0
   -8.3830  -23.7080   30.4224 H   0  0  0  0  0  0  0  0  0  0  0  0
   -9.3332  -23.2391   29.1192 H   0  0  0  0  0  0  0  0  0  0  0  0
  -11.1070  -20.7618   32.6029 H   0  0  0  0  0  0  0  0  0  0  0  0
  -10.8371  -20.8324   35.0169 H   0  0  0  0  0  0  0  0  0  0  0  0
   -8.5310  -24.2433   34.7866 H   0  0  0  0  0  0  0  0  0  0  0  0
   -8.6335  -24.3060   32.4372 H   0  0  0  0  0  0  0  0  0  0  0  0
  -11.4630  -21.5651   29.6798 H   0  0  0  0  0  0  0  0  0  0  0  0
  -12.1704  -21.9724   31.2127 H   0  0  0  0  0  0  0  0  0  0  0  0
  -13.1938  -23.4830   29.6792 H   0  0  0  0  0  0  0  0  0  0  0  0
  -11.8021  -23.6525   28.8060 H   0  0  0  0  0  0  0  0  0  0  0  0
  1  2  2  0
  2  3  1  0
  3  4  1  0
  4  5  1  0
  5  6  2  0
  6  7  1  0
  7  8  2  0
  8  9  1  0
  9 10  2  0
  2 11  1  0
 11 12  1  0
 12 13  1  0
 13 14  1  0
 14 15  1  0
 15 16  1  0
 16 17  1  0
 17 18  2  0
 18 19  1  0
 19 20  2  0
 20 21  1  0
 21 22  2  0
 16 23  1  0
 23 24  1  0
 10  5  1  0
 24 13  1  0
 22 17  1  0
  3 25  1  0
  3 26  1  0
  4 27  1  0
  4 28  1  0
  6 29  1  0
  8 30  1  0
 10 31  1  0
 11 32  1  0
 12 33  1  0
 12 34  1  0
 13 35  1  0
 14 36  1  0
 14 37  1  0
 15 38  1  0
 15 39  1  0
 18 40  1  0
 19 41  1  0
 21 42  1  0
 22 43  1  0
 23 44  1  0
 23 45  1  0
 24 46  1  0
 24 47  1  0
M  END
>  <Energy>  (138) 
44.837420315130686

>  <compound_id>  (138) 
34663

>  <target_id>  (138) 
1

>  <reference_id>  (138) 
54

>  <inspiration_ids>  (138) 
[82, 54]

>  <energy_score>  (138) 
18.239269595374367

>  <distance_score>  (138) 
3.171421432639835

>  <path>  (138) 
/opt/xchem-fragalysis-2/maxwin/BulkDock/SCRATCH/511015/C34663-P54/C34663-P54.minimised.mol

>  <scratch_subdir>  (138) 
/opt/xchem-fragalysis-2/maxwin/BulkDock/SCRATCH/511015/C34663-P54

>  <fragmenstein_runtime>  (138) 
6.669064283370972

>  <fragmenstein_outcome>  (138) 
too moved

>  <fragmenstein_mode>  (138) 
expansion

>  <fragmenstein_error>  (138) 


$$$$
C34664-P82
     RDKit          3D

 38 40  0  0  0  0  0  0  0  0999 V2000
  -14.8129  -21.8507   31.3179 C   0  0  0  0  0  0  0  0  0  0  0  0
  -13.3219  -22.2041   31.2210 C   0  0  0  0  0  0  0  0  0  0  0  0
  -12.7030  -23.0040   30.0015 C   0  0  0  0  0  0  0  0  0  0  0  0
  -12.6345  -24.1931   30.0965 O   0  0  0  0  0  0  0  0  0  0  0  0
  -12.3065  -22.1244   28.9343 N   0  0  0  0  0  0  0  0  0  0  0  0
  -11.6168  -22.3919   27.6876 C   0  0  0  0  0  0  0  0  0  0  0  0
  -11.6296  -23.7842   27.1739 C   0  0  0  0  0  0  0  0  0  0  0  0
  -10.5760  -24.5607   27.2477 N   0  0  0  0  0  0  0  0  0  0  0  0
  -11.0978  -25.7023   27.8021 C   0  0  0  0  0  0  0  0  0  0  0  0
  -10.6539  -26.0682   29.1289 C   0  0  0  0  0  0  0  0  0  0  0  0
  -10.1026  -25.0289   29.8571 C   0  0  0  0  0  0  0  0  0  0  0  0
   -9.8024  -25.1300   31.1816 C   0  0  0  0  0  0  0  0  0  0  0  0
  -10.1069  -26.3016   31.7661 C   0  0  0  0  0  0  0  0  0  0  0  0
  -10.5388  -27.3407   30.9746 C   0  0  0  0  0  0  0  0  0  0  0  0
  -10.9206  -27.2418   29.6800 N   0  0  0  0  0  0  0  0  0  0  0  0
  -12.2631  -26.1023   27.1832 C   0  0  0  0  0  0  0  0  0  0  0  0
  -12.9122  -24.6540   26.4328 S   0  0  0  0  0  0  0  0  0  0  0  0
  -12.9483  -22.9581   32.4339 C   0  0  0  0  0  0  0  0  0  0  0  0
  -13.7528  -23.8900   33.0196 C   0  0  0  0  0  0  0  0  0  0  0  0
  -13.2536  -24.8437   33.7811 N   0  0  0  0  0  0  0  0  0  0  0  0
  -11.9292  -24.8062   33.9531 C   0  0  0  0  0  0  0  0  0  0  0  0
  -11.0863  -23.8861   33.5124 N   0  0  0  0  0  0  0  0  0  0  0  0
  -11.6295  -22.9494   32.7732 C   0  0  0  0  0  0  0  0  0  0  0  0
  -15.4688  -22.6995   31.1174 H   0  0  0  0  0  0  0  0  0  0  0  0
  -15.0614  -21.4853   32.3237 H   0  0  0  0  0  0  0  0  0  0  0  0
  -15.1296  -21.0534   30.6566 H   0  0  0  0  0  0  0  0  0  0  0  0
  -12.7088  -21.3166   31.3196 H   0  0  0  0  0  0  0  0  0  0  0  0
  -12.4350  -21.1722   29.2292 H   0  0  0  0  0  0  0  0  0  0  0  0
  -11.9183  -21.6953   26.9198 H   0  0  0  0  0  0  0  0  0  0  0  0
  -10.5957  -22.1424   27.9653 H   0  0  0  0  0  0  0  0  0  0  0  0
  -10.1420  -24.0659   29.4054 H   0  0  0  0  0  0  0  0  0  0  0  0
   -9.4493  -24.3132   31.7842 H   0  0  0  0  0  0  0  0  0  0  0  0
  -10.0224  -26.3718   32.8342 H   0  0  0  0  0  0  0  0  0  0  0  0
  -10.6576  -28.3196   31.4250 H   0  0  0  0  0  0  0  0  0  0  0  0
  -12.8724  -26.9777   27.3407 H   0  0  0  0  0  0  0  0  0  0  0  0
  -14.8124  -23.9760   32.8130 H   0  0  0  0  0  0  0  0  0  0  0  0
  -11.4676  -25.5880   34.5362 H   0  0  0  0  0  0  0  0  0  0  0  0
  -10.9443  -22.2329   32.3445 H   0  0  0  0  0  0  0  0  0  0  0  0
  1  2  1  0
  2  3  1  0
  3  4  2  0
  3  5  1  0
  5  6  1  0
  6  7  1  0
  7  8  2  0
  8  9  1  0
  9 10  1  0
 10 11  2  0
 11 12  1  0
 12 13  2  0
 13 14  1  0
 14 15  2  0
  9 16  2  0
 16 17  1  0
  2 18  1  0
 18 19  2  0
 19 20  1  0
 20 21  2  0
 21 22  1  0
 22 23  2  0
 17  7  1  0
 23 18  1  0
 15 10  1  0
  1 24  1  0
  1 25  1  0
  1 26  1  0
  2 27  1  0
  5 28  1  0
  6 29  1  0
  6 30  1  0
 11 31  1  0
 12 32  1  0
 13 33  1  0
 14 34  1  0
 16 35  1  0
 19 36  1  0
 21 37  1  0
 23 38  1  0
M  END
>  <Energy>  (139) 
125.88048939492136

>  <compound_id>  (139) 
34664

>  <target_id>  (139) 
1

>  <reference_id>  (139) 
82

>  <inspiration_ids>  (139) 
[82, 54]

>  <energy_score>  (139) 
9.925006337070386

>  <distance_score>  (139) 
3.1744410454163834

>  <path>  (139) 
/opt/xchem-fragalysis-2/maxwin/BulkDock/SCRATCH/511015/C34664-P82/C34664-P82.minimised.mol

>  <scratch_subdir>  (139) 
/opt/xchem-fragalysis-2/maxwin/BulkDock/SCRATCH/511015/C34664-P82

>  <fragmenstein_runtime>  (139) 
7.880979776382446

>  <fragmenstein_outcome>  (139) 
too moved

>  <fragmenstein_mode>  (139) 
expansion

>  <fragmenstein_error>  (139) 


$$$$
C34664-P54
     RDKit          3D

 38 40  0  0  0  0  0  0  0  0999 V2000
  -15.3944  -28.1260   29.1685 C   0  0  0  0  0  0  0  0  0  0  0  0
  -14.6509  -26.7928   29.3200 C   0  0  0  0  0  0  0  0  0  0  0  0
  -14.0223  -26.4144   27.9485 C   0  0  0  0  0  0  0  0  0  0  0  0
  -13.7673  -27.1954   27.1204 O   0  0  0  0  0  0  0  0  0  0  0  0
  -13.7478  -24.8913   28.0099 N   0  0  0  0  0  0  0  0  0  0  0  0
  -13.0208  -24.0367   27.1107 C   0  0  0  0  0  0  0  0  0  0  0  0
  -11.8065  -23.6317   27.9067 C   0  0  0  0  0  0  0  0  0  0  0  0
  -11.8109  -22.9976   29.0722 N   0  0  0  0  0  0  0  0  0  0  0  0
  -10.5881  -23.2153   29.7253 C   0  0  0  0  0  0  0  0  0  0  0  0
  -10.2865  -22.8350   31.1078 C   0  0  0  0  0  0  0  0  0  0  0  0
  -11.0074  -21.8624   31.7792 C   0  0  0  0  0  0  0  0  0  0  0  0
  -10.6763  -21.5879   33.1071 C   0  0  0  0  0  0  0  0  0  0  0  0
   -9.6474  -22.2926   33.7220 C   0  0  0  0  0  0  0  0  0  0  0  0
   -8.9585  -23.2252   32.9749 C   0  0  0  0  0  0  0  0  0  0  0  0
   -9.2551  -23.5086   31.6906 N   0  0  0  0  0  0  0  0  0  0  0  0
   -9.6609  -23.9087   28.9732 C   0  0  0  0  0  0  0  0  0  0  0  0
  -10.3203  -24.3624   27.4754 S   0  0  0  0  0  0  0  0  0  0  0  0
  -13.5942  -26.8472   30.4254 C   0  0  0  0  0  0  0  0  0  0  0  0
  -12.3012  -26.3897   30.2714 C   0  0  0  0  0  0  0  0  0  0  0  0
  -11.3682  -26.4282   31.2258 N   0  0  0  0  0  0  0  0  0  0  0  0
  -11.7127  -27.0333   32.3600 C   0  0  0  0  0  0  0  0  0  0  0  0
  -12.9252  -27.4895   32.6556 N   0  0  0  0  0  0  0  0  0  0  0  0
  -13.8439  -27.3704   31.6811 C   0  0  0  0  0  0  0  0  0  0  0  0
  -15.9908  -28.3585   30.0566 H   0  0  0  0  0  0  0  0  0  0  0  0
  -14.6990  -28.9574   29.0040 H   0  0  0  0  0  0  0  0  0  0  0  0
  -16.0813  -28.0929   28.3152 H   0  0  0  0  0  0  0  0  0  0  0  0
  -15.3895  -26.0255   29.5851 H   0  0  0  0  0  0  0  0  0  0  0  0
  -14.1776  -24.5032   28.8408 H   0  0  0  0  0  0  0  0  0  0  0  0
  -13.6359  -23.2077   26.7809 H   0  0  0  0  0  0  0  0  0  0  0  0
  -12.7604  -24.6265   26.2270 H   0  0  0  0  0  0  0  0  0  0  0  0
  -11.8266  -21.3384   31.2992 H   0  0  0  0  0  0  0  0  0  0  0  0
  -11.2437  -20.8462   33.6650 H   0  0  0  0  0  0  0  0  0  0  0  0
   -9.3986  -22.1187   34.7595 H   0  0  0  0  0  0  0  0  0  0  0  0
   -8.1264  -23.7839   33.3934 H   0  0  0  0  0  0  0  0  0  0  0  0
   -8.6562  -24.1920   29.2566 H   0  0  0  0  0  0  0  0  0  0  0  0
  -11.9247  -25.9985   29.3392 H   0  0  0  0  0  0  0  0  0  0  0  0
  -10.9565  -27.1363   33.1287 H   0  0  0  0  0  0  0  0  0  0  0  0
  -14.8264  -27.7484   31.9539 H   0  0  0  0  0  0  0  0  0  0  0  0
  1  2  1  0
  2  3  1  0
  3  4  2  0
  3  5  1  0
  5  6  1  0
  6  7  1  0
  7  8  2  0
  8  9  1  0
  9 10  1  0
 10 11  2  0
 11 12  1  0
 12 13  2  0
 13 14  1  0
 14 15  2  0
  9 16  2  0
 16 17  1  0
  2 18  1  0
 18 19  2  0
 19 20  1  0
 20 21  2  0
 21 22  1  0
 22 23  2  0
 17  7  1  0
 23 18  1  0
 15 10  1  0
  1 24  1  0
  1 25  1  0
  1 26  1  0
  2 27  1  0
  5 28  1  0
  6 29  1  0
  6 30  1  0
 11 31  1  0
 12 32  1  0
 13 33  1  0
 14 34  1  0
 16 35  1  0
 19 36  1  0
 21 37  1  0
 23 38  1  0
M  END
>  <Energy>  (140) 
59.822559840411081

>  <compound_id>  (140) 
34664

>  <target_id>  (140) 
1

>  <reference_id>  (140) 
54

>  <inspiration_ids>  (140) 
[82, 54]

>  <energy_score>  (140) 
-24.922017181720264

>  <distance_score>  (140) 
2.2706106348565327

>  <path>  (140) 
/opt/xchem-fragalysis-2/maxwin/BulkDock/SCRATCH/511015/C34664-P54/C34664-P54.minimised.mol

>  <scratch_subdir>  (140) 
/opt/xchem-fragalysis-2/maxwin/BulkDock/SCRATCH/511015/C34664-P54

>  <fragmenstein_runtime>  (140) 
4.383473634719849

>  <fragmenstein_outcome>  (140) 
too moved

>  <fragmenstein_mode>  (140) 
expansion

>  <fragmenstein_error>  (140) 


$$$$
C34665-P82
     RDKit          3D

 38 40  0  0  0  0  0  0  0  0999 V2000
  -11.2972  -21.2025   29.8989 O   0  0  0  0  0  0  0  0  0  0  0  0
  -12.0762  -22.0935   29.7575 C   0  0  0  0  0  0  0  0  0  0  0  0
  -12.9279  -22.6030   30.9106 C   0  0  0  0  0  0  0  0  0  0  0  0
  -12.5706  -22.1990   32.3296 C   0  0  0  0  0  0  0  0  0  0  0  0
  -13.6915  -22.7449   33.1552 C   0  0  0  0  0  0  0  0  0  0  0  0
  -14.8875  -22.0734   33.3052 C   0  0  0  0  0  0  0  0  0  0  0  0
  -16.0041  -22.6319   33.7973 N   0  0  0  0  0  0  0  0  0  0  0  0
  -15.9025  -23.9321   34.1154 C   0  0  0  0  0  0  0  0  0  0  0  0
  -14.7920  -24.6781   34.0565 N   0  0  0  0  0  0  0  0  0  0  0  0
  -13.6974  -24.0524   33.5854 C   0  0  0  0  0  0  0  0  0  0  0  0
  -12.4594  -22.8251   28.5862 N   0  0  0  0  0  0  0  0  0  0  0  0
  -11.9582  -22.7792   27.2349 C   0  0  0  0  0  0  0  0  0  0  0  0
  -11.3089  -24.0750   27.0024 C   0  0  0  0  0  0  0  0  0  0  0  0
  -10.2583  -24.4897   27.6536 N   0  0  0  0  0  0  0  0  0  0  0  0
  -10.7420  -25.6663   28.1543 C   0  0  0  0  0  0  0  0  0  0  0  0
  -10.5772  -25.8883   29.5777 C   0  0  0  0  0  0  0  0  0  0  0  0
  -10.4422  -24.7757   30.3972 C   0  0  0  0  0  0  0  0  0  0  0  0
  -10.3077  -24.8673   31.7619 C   0  0  0  0  0  0  0  0  0  0  0  0
  -10.3757  -26.1161   32.2806 C   0  0  0  0  0  0  0  0  0  0  0  0
  -10.4622  -27.1873   31.3921 C   0  0  0  0  0  0  0  0  0  0  0  0
  -10.6331  -27.1101   30.0662 N   0  0  0  0  0  0  0  0  0  0  0  0
  -11.6945  -26.2221   27.3743 N   0  0  0  0  0  0  0  0  0  0  0  0
  -11.9916  -25.1803   26.5737 N   0  0  0  0  0  0  0  0  0  0  0  0
  -13.9401  -22.2330   30.7180 H   0  0  0  0  0  0  0  0  0  0  0  0
  -12.9669  -23.6983   30.8568 H   0  0  0  0  0  0  0  0  0  0  0  0
  -12.4801  -21.1232   32.4613 H   0  0  0  0  0  0  0  0  0  0  0  0
  -11.6153  -22.6059   32.6528 H   0  0  0  0  0  0  0  0  0  0  0  0
  -15.0057  -21.0464   32.9779 H   0  0  0  0  0  0  0  0  0  0  0  0
  -16.8017  -24.4229   34.4697 H   0  0  0  0  0  0  0  0  0  0  0  0
  -12.8156  -24.6800   33.5097 H   0  0  0  0  0  0  0  0  0  0  0  0
  -13.2175  -23.4646   28.8267 H   0  0  0  0  0  0  0  0  0  0  0  0
  -12.8020  -22.7474   26.5601 H   0  0  0  0  0  0  0  0  0  0  0  0
  -11.3167  -21.9157   27.1366 H   0  0  0  0  0  0  0  0  0  0  0  0
  -10.4784  -23.8170   29.9295 H   0  0  0  0  0  0  0  0  0  0  0  0
  -10.1533  -24.0069   32.3935 H   0  0  0  0  0  0  0  0  0  0  0  0
  -10.3317  -26.2674   33.3495 H   0  0  0  0  0  0  0  0  0  0  0  0
  -10.4684  -28.2118   31.7463 H   0  0  0  0  0  0  0  0  0  0  0  0
  -12.8152  -25.2312   25.9865 H   0  0  0  0  0  0  0  0  0  0  0  0
  1  2  2  0
  2  3  1  0
  3  4  1  0
  4  5  1  0
  5  6  2  0
  6  7  1  0
  7  8  2  0
  8  9  1  0
  9 10  2  0
  2 11  1  0
 11 12  1  0
 12 13  1  0
 13 14  2  0
 14 15  1  0
 15 16  1  0
 16 17  2  0
 17 18  1  0
 18 19  2  0
 19 20  1  0
 20 21  2  0
 15 22  2  0
 22 23  1  0
 10  5  1  0
 23 13  1  0
 21 16  1  0
  3 24  1  0
  3 25  1  0
  4 26  1  0
  4 27  1  0
  6 28  1  0
  8 29  1  0
 10 30  1  0
 11 31  1  0
 12 32  1  0
 12 33  1  0
 17 34  1  0
 18 35  1  0
 19 36  1  0
 20 37  1  0
 23 38  1  0
M  END
>  <Energy>  (141) 
87.616970373663563

>  <compound_id>  (141) 
34665

>  <target_id>  (141) 
1

>  <reference_id>  (141) 
82

>  <inspiration_ids>  (141) 
[82, 54]

>  <energy_score>  (141) 
33.54596539968338

>  <distance_score>  (141) 
3.5531087193225743

>  <path>  (141) 
/opt/xchem-fragalysis-2/maxwin/BulkDock/SCRATCH/511015/C34665-P82/C34665-P82.minimised.mol

>  <scratch_subdir>  (141) 
/opt/xchem-fragalysis-2/maxwin/BulkDock/SCRATCH/511015/C34665-P82

>  <fragmenstein_runtime>  (141) 
7.359857082366943

>  <fragmenstein_outcome>  (141) 
too moved

>  <fragmenstein_mode>  (141) 
expansion

>  <fragmenstein_error>  (141) 


$$$$
C34665-P54
     RDKit          3D

 38 40  0  0  0  0  0  0  0  0999 V2000
  -12.8022  -22.3029   29.7229 O   0  0  0  0  0  0  0  0  0  0  0  0
  -12.0004  -21.6288   29.1526 C   0  0  0  0  0  0  0  0  0  0  0  0
  -11.3045  -20.5196   29.9154 C   0  0  0  0  0  0  0  0  0  0  0  0
  -11.3358  -20.7366   31.4403 C   0  0  0  0  0  0  0  0  0  0  0  0
  -10.5240  -21.8737   32.0124 C   0  0  0  0  0  0  0  0  0  0  0  0
  -10.2359  -21.9275   33.3643 C   0  0  0  0  0  0  0  0  0  0  0  0
   -9.4673  -22.8777   33.9463 N   0  0  0  0  0  0  0  0  0  0  0  0
   -8.9872  -23.8171   33.1231 C   0  0  0  0  0  0  0  0  0  0  0  0
   -9.2505  -23.9193   31.8173 N   0  0  0  0  0  0  0  0  0  0  0  0
  -10.0213  -22.9424   31.2996 C   0  0  0  0  0  0  0  0  0  0  0  0
  -11.4696  -21.7279   27.8235 N   0  0  0  0  0  0  0  0  0  0  0  0
  -11.7920  -22.6306   26.7377 C   0  0  0  0  0  0  0  0  0  0  0  0
  -11.6482  -23.9890   27.2964 C   0  0  0  0  0  0  0  0  0  0  0  0
  -12.5775  -24.7294   27.8593 N   0  0  0  0  0  0  0  0  0  0  0  0
  -11.8542  -25.5793   28.6633 C   0  0  0  0  0  0  0  0  0  0  0  0
  -12.4236  -26.3140   29.7890 C   0  0  0  0  0  0  0  0  0  0  0  0
  -11.6870  -26.4276   30.9631 C   0  0  0  0  0  0  0  0  0  0  0  0
  -12.1924  -27.1731   32.0217 C   0  0  0  0  0  0  0  0  0  0  0  0
  -13.4512  -27.7341   31.9011 C   0  0  0  0  0  0  0  0  0  0  0  0
  -14.1426  -27.5339   30.7173 C   0  0  0  0  0  0  0  0  0  0  0  0
  -13.6607  -26.8426   29.6613 N   0  0  0  0  0  0  0  0  0  0  0  0
  -10.5343  -25.5557   28.4045 N   0  0  0  0  0  0  0  0  0  0  0  0
  -10.4313  -24.5209   27.5787 N   0  0  0  0  0  0  0  0  0  0  0  0
  -11.8090  -19.5818   29.6724 H   0  0  0  0  0  0  0  0  0  0  0  0
  -10.2868  -20.4361   29.5484 H   0  0  0  0  0  0  0  0  0  0  0  0
  -12.3708  -20.8465   31.7706 H   0  0  0  0  0  0  0  0  0  0  0  0
  -10.9687  -19.8080   31.8984 H   0  0  0  0  0  0  0  0  0  0  0  0
  -10.6231  -21.1756   34.0497 H   0  0  0  0  0  0  0  0  0  0  0  0
   -8.3312  -24.5666   33.5501 H   0  0  0  0  0  0  0  0  0  0  0  0
  -10.2055  -23.0697   30.2415 H   0  0  0  0  0  0  0  0  0  0  0  0
  -10.8672  -20.9315   27.6478 H   0  0  0  0  0  0  0  0  0  0  0  0
  -11.1070  -22.4702   25.9058 H   0  0  0  0  0  0  0  0  0  0  0  0
  -12.8160  -22.4715   26.4015 H   0  0  0  0  0  0  0  0  0  0  0  0
  -10.7276  -25.9309   31.0465 H   0  0  0  0  0  0  0  0  0  0  0  0
  -11.6115  -27.3064   32.9288 H   0  0  0  0  0  0  0  0  0  0  0  0
  -13.8877  -28.3190   32.7028 H   0  0  0  0  0  0  0  0  0  0  0  0
  -15.1378  -27.9479   30.5769 H   0  0  0  0  0  0  0  0  0  0  0  0
   -9.5131  -24.1486   27.3815 H   0  0  0  0  0  0  0  0  0  0  0  0
  1  2  2  0
  2  3  1  0
  3  4  1  0
  4  5  1  0
  5  6  2  0
  6  7  1  0
  7  8  2  0
  8  9  1  0
  9 10  2  0
  2 11  1  0
 11 12  1  0
 12 13  1  0
 13 14  2  0
 14 15  1  0
 15 16  1  0
 16 17  2  0
 17 18  1  0
 18 19  2  0
 19 20  1  0
 20 21  2  0
 15 22  2  0
 22 23  1  0
 10  5  1  0
 23 13  1  0
 21 16  1  0
  3 24  1  0
  3 25  1  0
  4 26  1  0
  4 27  1  0
  6 28  1  0
  8 29  1  0
 10 30  1  0
 11 31  1  0
 12 32  1  0
 12 33  1  0
 17 34  1  0
 18 35  1  0
 19 36  1  0
 20 37  1  0
 23 38  1  0
M  END
>  <Energy>  (142) 
58.299364116684039

>  <compound_id>  (142) 
34665

>  <target_id>  (142) 
1

>  <reference_id>  (142) 
54

>  <inspiration_ids>  (142) 
[82, 54]

>  <energy_score>  (142) 
4.228359142706694

>  <distance_score>  (142) 
3.925079596387429

>  <path>  (142) 
/opt/xchem-fragalysis-2/maxwin/BulkDock/SCRATCH/511015/C34665-P54/C34665-P54.minimised.mol

>  <scratch_subdir>  (142) 
/opt/xchem-fragalysis-2/maxwin/BulkDock/SCRATCH/511015/C34665-P54

>  <fragmenstein_runtime>  (142) 
8.563698291778564

>  <fragmenstein_outcome>  (142) 
too moved

>  <fragmenstein_mode>  (142) 
expansion

>  <fragmenstein_error>  (142) 


$$$$
C34666-P82
     RDKit          3D

 45 47  0  0  0  0  0  0  0  0999 V2000
  -12.1218  -24.0046   25.5958 C   0  0  0  0  0  0  0  0  0  0  0  0
  -12.3687  -24.0810   27.0839 C   0  0  0  0  0  0  0  0  0  0  0  0
  -12.0748  -22.8036   27.8961 C   0  0  0  0  0  0  0  0  0  0  0  0
  -11.5818  -21.8773   27.3975 O   0  0  0  0  0  0  0  0  0  0  0  0
  -12.4555  -23.0630   29.3759 N   0  0  0  0  0  0  0  0  0  0  0  0
  -12.3922  -22.2004   30.5162 C   0  0  0  0  0  0  0  0  0  0  0  0
  -12.7989  -22.7407   31.9081 C   0  0  0  0  0  0  0  0  0  0  0  0
  -11.9200  -23.8904   32.3205 C   0  0  0  0  0  0  0  0  0  0  0  0
  -10.7918  -24.2846   31.6206 C   0  0  0  0  0  0  0  0  0  0  0  0
   -9.8462  -25.1051   32.1993 C   0  0  0  0  0  0  0  0  0  0  0  0
   -9.9854  -25.6142   33.4128 N   0  0  0  0  0  0  0  0  0  0  0  0
  -11.1400  -25.3346   34.0108 C   0  0  0  0  0  0  0  0  0  0  0  0
  -12.1219  -24.5032   33.5308 C   0  0  0  0  0  0  0  0  0  0  0  0
  -14.3154  -23.0136   31.9925 C   0  0  0  0  0  0  0  0  0  0  0  0
  -14.9869  -21.7097   32.3694 C   0  0  0  0  0  0  0  0  0  0  0  0
  -14.0581  -21.2312   33.4457 C   0  0  0  0  0  0  0  0  0  0  0  0
  -12.6445  -21.6199   32.9932 C   0  0  0  0  0  0  0  0  0  0  0  0
  -11.5495  -25.1542   27.6902 C   0  0  0  0  0  0  0  0  0  0  0  0
  -10.2830  -24.8662   28.1177 C   0  0  0  0  0  0  0  0  0  0  0  0
   -9.6588  -25.5685   29.0546 N   0  0  0  0  0  0  0  0  0  0  0  0
  -10.3551  -26.6011   29.5499 C   0  0  0  0  0  0  0  0  0  0  0  0
  -11.5375  -27.0468   29.1022 N   0  0  0  0  0  0  0  0  0  0  0  0
  -12.0929  -26.3205   28.1350 C   0  0  0  0  0  0  0  0  0  0  0  0
  -11.0606  -24.0168   25.3374 H   0  0  0  0  0  0  0  0  0  0  0  0
  -12.5700  -24.8949   25.1499 H   0  0  0  0  0  0  0  0  0  0  0  0
  -12.5831  -23.1257   25.1406 H   0  0  0  0  0  0  0  0  0  0  0  0
  -13.4201  -24.3208   27.1959 H   0  0  0  0  0  0  0  0  0  0  0  0
  -12.9491  -23.9528   29.4505 H   0  0  0  0  0  0  0  0  0  0  0  0
  -13.1430  -21.5090   30.2309 H   0  0  0  0  0  0  0  0  0  0  0  0
  -11.4398  -21.6675   30.5063 H   0  0  0  0  0  0  0  0  0  0  0  0
  -10.5939  -23.9288   30.6285 H   0  0  0  0  0  0  0  0  0  0  0  0
   -8.9289  -25.3731   31.6923 H   0  0  0  0  0  0  0  0  0  0  0  0
  -11.2536  -25.8119   34.9603 H   0  0  0  0  0  0  0  0  0  0  0  0
  -12.9953  -24.2998   34.1343 H   0  0  0  0  0  0  0  0  0  0  0  0
  -14.7260  -23.3284   31.0595 H   0  0  0  0  0  0  0  0  0  0  0  0
  -14.5725  -23.7711   32.7396 H   0  0  0  0  0  0  0  0  0  0  0  0
  -15.0442  -21.0223   31.5243 H   0  0  0  0  0  0  0  0  0  0  0  0
  -16.0055  -21.8661   32.7380 H   0  0  0  0  0  0  0  0  0  0  0  0
  -14.1776  -20.1822   33.7216 H   0  0  0  0  0  0  0  0  0  0  0  0
  -14.3280  -21.8128   34.3189 H   0  0  0  0  0  0  0  0  0  0  0  0
  -12.0882  -21.9367   33.8794 H   0  0  0  0  0  0  0  0  0  0  0  0
  -12.0676  -20.7782   32.6111 H   0  0  0  0  0  0  0  0  0  0  0  0
   -9.7836  -23.9634   27.7885 H   0  0  0  0  0  0  0  0  0  0  0  0
   -9.9077  -27.1574   30.3696 H   0  0  0  0  0  0  0  0  0  0  0  0
  -13.0511  -26.6663   27.7737 H   0  0  0  0  0  0  0  0  0  0  0  0
  1  2  1  0
  2  3  1  0
  3  4  2  0
  3  5  1  0
  5  6  1  0
  6  7  1  0
  7  8  1  0
  8  9  2  0
  9 10  1  0
 10 11  2  0
 11 12  1  0
 12 13  2  0
  7 14  1  0
 14 15  1  0
 15 16  1  0
 16 17  1  0
  2 18  1  0
 18 19  2  0
 19 20  1  0
 20 21  2  0
 21 22  1  0
 22 23  2  0
 17  7  1  0
 23 18  1  0
 13  8  1  0
  1 24  1  0
  1 25  1  0
  1 26  1  0
  2 27  1  0
  5 28  1  0
  6 29  1  0
  6 30  1  0
  9 31  1  0
 10 32  1  0
 12 33  1  0
 13 34  1  0
 14 35  1  0
 14 36  1  0
 15 37  1  0
 15 38  1  0
 16 39  1  0
 16 40  1  0
 17 41  1  0
 17 42  1  0
 19 43  1  0
 21 44  1  0
 23 45  1  0
M  END
>  <Energy>  (143) 
84.581520454611521

>  <compound_id>  (143) 
34666

>  <target_id>  (143) 
1

>  <reference_id>  (143) 
82

>  <inspiration_ids>  (143) 
[82, 54]

>  <energy_score>  (143) 
-3.026000637490938

>  <distance_score>  (143) 
2.159498241956106

>  <path>  (143) 
/opt/xchem-fragalysis-2/maxwin/BulkDock/SCRATCH/511015/C34666-P82/C34666-P82.minimised.mol

>  <scratch_subdir>  (143) 
/opt/xchem-fragalysis-2/maxwin/BulkDock/SCRATCH/511015/C34666-P82

>  <fragmenstein_runtime>  (143) 
3.4016785621643066

>  <fragmenstein_outcome>  (143) 
too moved

>  <fragmenstein_mode>  (143) 
expansion

>  <fragmenstein_error>  (143) 


$$$$
C34666-P54
     RDKit          3D

 45 47  0  0  0  0  0  0  0  0999 V2000
  -14.8199  -26.2100   26.3754 C   0  0  0  0  0  0  0  0  0  0  0  0
  -13.9680  -25.7100   27.5449 C   0  0  0  0  0  0  0  0  0  0  0  0
  -13.9172  -24.1718   27.5781 C   0  0  0  0  0  0  0  0  0  0  0  0
  -14.0843  -23.5532   26.5661 O   0  0  0  0  0  0  0  0  0  0  0  0
  -13.5624  -23.7277   28.9101 N   0  0  0  0  0  0  0  0  0  0  0  0
  -13.2009  -22.3988   29.4176 C   0  0  0  0  0  0  0  0  0  0  0  0
  -14.0105  -21.8959   30.7150 C   0  0  0  0  0  0  0  0  0  0  0  0
  -12.2996  -21.9117   31.5267 C   0  0  0  0  0  0  0  0  0  0  0  0
  -11.3740  -23.0116   31.3496 C   0  0  0  0  0  0  0  0  0  0  0  0
  -10.1295  -23.0512   31.9753 C   0  0  0  0  0  0  0  0  0  0  0  0
   -9.7249  -22.1362   32.8591 N   0  0  0  0  0  0  0  0  0  0  0  0
  -10.6103  -21.1560   33.1194 C   0  0  0  0  0  0  0  0  0  0  0  0
  -11.8567  -20.9979   32.5055 C   0  0  0  0  0  0  0  0  0  0  0  0
  -15.8722  -22.8088   31.4061 C   0  0  0  0  0  0  0  0  0  0  0  0
  -16.7220  -21.5521   32.6268 C   0  0  0  0  0  0  0  0  0  0  0  0
  -15.8436  -19.9765   32.4298 C   0  0  0  0  0  0  0  0  0  0  0  0
  -14.3579  -20.0486   31.3131 C   0  0  0  0  0  0  0  0  0  0  0  0
  -12.5635  -26.2572   27.4325 C   0  0  0  0  0  0  0  0  0  0  0  0
  -11.5532  -25.6222   26.7262 C   0  0  0  0  0  0  0  0  0  0  0  0
  -10.3176  -26.1286   26.5557 N   0  0  0  0  0  0  0  0  0  0  0  0
  -10.0875  -27.2971   27.1668 C   0  0  0  0  0  0  0  0  0  0  0  0
  -10.9711  -27.9907   27.8983 N   0  0  0  0  0  0  0  0  0  0  0  0
  -12.2021  -27.4595   28.0010 C   0  0  0  0  0  0  0  0  0  0  0  0
  -14.3948  -25.9225   25.4064 H   0  0  0  0  0  0  0  0  0  0  0  0
  -14.9027  -27.3025   26.3879 H   0  0  0  0  0  0  0  0  0  0  0  0
  -15.8316  -25.7933   26.4290 H   0  0  0  0  0  0  0  0  0  0  0  0
  -14.4336  -26.0583   28.4762 H   0  0  0  0  0  0  0  0  0  0  0  0
  -13.4248  -24.5368   29.5028 H   0  0  0  0  0  0  0  0  0  0  0  0
  -12.9125  -21.5666   28.7646 H   0  0  0  0  0  0  0  0  0  0  0  0
  -12.1357  -22.5917   29.4685 H   0  0  0  0  0  0  0  0  0  0  0  0
  -11.6038  -23.8906   30.7567 H   0  0  0  0  0  0  0  0  0  0  0  0
   -9.4341  -23.8665   31.7966 H   0  0  0  0  0  0  0  0  0  0  0  0
  -10.3158  -20.4659   33.9024 H   0  0  0  0  0  0  0  0  0  0  0  0
  -12.4629  -20.2395   32.9756 H   0  0  0  0  0  0  0  0  0  0  0  0
  -16.6764  -23.1583   30.7671 H   0  0  0  0  0  0  0  0  0  0  0  0
  -15.9706  -23.6819   32.1089 H   0  0  0  0  0  0  0  0  0  0  0  0
  -17.7703  -21.4352   32.3244 H   0  0  0  0  0  0  0  0  0  0  0  0
  -16.6355  -21.9236   33.6553 H   0  0  0  0  0  0  0  0  0  0  0  0
  -16.5436  -19.2510   31.9996 H   0  0  0  0  0  0  0  0  0  0  0  0
  -15.5114  -19.6364   33.4177 H   0  0  0  0  0  0  0  0  0  0  0  0
  -13.5427  -19.5372   31.7953 H   0  0  0  0  0  0  0  0  0  0  0  0
  -14.6973  -19.3408   30.5773 H   0  0  0  0  0  0  0  0  0  0  0  0
  -11.7055  -24.6560   26.2502 H   0  0  0  0  0  0  0  0  0  0  0  0
   -9.0938  -27.7219   27.0658 H   0  0  0  0  0  0  0  0  0  0  0  0
  -12.9084  -28.0600   28.5689 H   0  0  0  0  0  0  0  0  0  0  0  0
  1  2  1  0
  2  3  1  0
  3  4  2  0
  3  5  1  0
  5  6  1  0
  6  7  1  0
  7  8  1  0
  8  9  2  0
  9 10  1  0
 10 11  2  0
 11 12  1  0
 12 13  2  0
  7 14  1  0
 14 15  1  0
 15 16  1  0
 16 17  1  0
  2 18  1  0
 18 19  2  0
 19 20  1  0
 20 21  2  0
 21 22  1  0
 22 23  2  0
 17  7  1  0
 23 18  1  0
 13  8  1  0
  1 24  1  0
  1 25  1  0
  1 26  1  0
  2 27  1  0
  5 28  1  0
  6 29  1  0
  6 30  1  0
  9 31  1  0
 10 32  1  0
 12 33  1  0
 13 34  1  0
 14 35  1  0
 14 36  1  0
 15 37  1  0
 15 38  1  0
 16 39  1  0
 16 40  1  0
 17 41  1  0
 17 42  1  0
 19 43  1  0
 21 44  1  0
 23 45  1  0
M  END
>  <Energy>  (144) 
392.20649987552218

>  <compound_id>  (144) 
34666

>  <target_id>  (144) 
1

>  <reference_id>  (144) 
54

>  <inspiration_ids>  (144) 
[82, 54]

>  <energy_score>  (144) 
314.75059236536674

>  <distance_score>  (144) 
3.6636575838664562

>  <path>  (144) 
/opt/xchem-fragalysis-2/maxwin/BulkDock/SCRATCH/511015/C34666-P54/C34666-P54.minimised.mol

>  <scratch_subdir>  (144) 
/opt/xchem-fragalysis-2/maxwin/BulkDock/SCRATCH/511015/C34666-P54

>  <fragmenstein_runtime>  (144) 
9.503196001052856

>  <fragmenstein_outcome>  (144) 
too moved

>  <fragmenstein_mode>  (144) 
expansion

>  <fragmenstein_error>  (144) 


$$$$
C34667-P82
     RDKit          3D

 44 46  0  0  0  0  0  0  0  0999 V2000
  -17.4648  -22.0234   31.4897 C   0  0  0  0  0  0  0  0  0  0  0  0
  -16.1472  -22.3122   32.1033 N   0  0  0  0  0  0  0  0  0  0  0  0
  -15.2081  -21.4492   32.7427 C   0  0  0  0  0  0  0  0  0  0  0  0
  -15.2866  -20.2806   33.0275 O   0  0  0  0  0  0  0  0  0  0  0  0
  -13.8781  -22.1703   32.9865 C   0  0  0  0  0  0  0  0  0  0  0  0
  -13.3854  -22.9096   31.7499 C   0  0  0  0  0  0  0  0  0  0  0  0
  -12.1504  -23.7447   31.8626 C   0  0  0  0  0  0  0  0  0  0  0  0
  -11.5382  -24.2064   30.7121 C   0  0  0  0  0  0  0  0  0  0  0  0
  -10.4446  -24.9895   30.6925 N   0  0  0  0  0  0  0  0  0  0  0  0
   -9.9804  -25.3508   31.8952 C   0  0  0  0  0  0  0  0  0  0  0  0
  -10.5032  -25.0018   33.0782 N   0  0  0  0  0  0  0  0  0  0  0  0
  -11.5950  -24.2122   33.0303 C   0  0  0  0  0  0  0  0  0  0  0  0
  -17.0593  -23.0183   33.1762 C   0  0  0  0  0  0  0  0  0  0  0  0
  -17.3461  -22.1877   34.4475 C   0  0  0  0  0  0  0  0  0  0  0  0
  -17.8396  -23.2450   35.4198 C   0  0  0  0  0  0  0  0  0  0  0  0
  -16.9574  -24.3713   35.1616 N   0  0  0  0  0  0  0  0  0  0  0  0
  -17.0681  -25.5689   35.8396 C   0  0  0  0  0  0  0  0  0  0  0  0
  -18.1774  -25.8856   36.6307 C   0  0  0  0  0  0  0  0  0  0  0  0
  -18.2252  -27.0985   37.3062 C   0  0  0  0  0  0  0  0  0  0  0  0
  -17.2407  -28.0132   37.2769 N   0  0  0  0  0  0  0  0  0  0  0  0
  -16.1549  -27.6845   36.5490 C   0  0  0  0  0  0  0  0  0  0  0  0
  -16.0375  -26.5078   35.8195 C   0  0  0  0  0  0  0  0  0  0  0  0
  -16.4079  -24.3093   33.7967 C   0  0  0  0  0  0  0  0  0  0  0  0
  -18.1485  -21.3934   32.0754 H   0  0  0  0  0  0  0  0  0  0  0  0
  -17.2091  -21.3630   30.6506 H   0  0  0  0  0  0  0  0  0  0  0  0
  -17.9173  -22.8938   30.9926 H   0  0  0  0  0  0  0  0  0  0  0  0
  -13.1312  -21.4233   33.2833 H   0  0  0  0  0  0  0  0  0  0  0  0
  -13.9975  -22.8322   33.8399 H   0  0  0  0  0  0  0  0  0  0  0  0
  -13.2372  -22.1765   30.9485 H   0  0  0  0  0  0  0  0  0  0  0  0
  -14.1672  -23.5843   31.4160 H   0  0  0  0  0  0  0  0  0  0  0  0
  -11.9325  -23.9501   29.7312 H   0  0  0  0  0  0  0  0  0  0  0  0
   -9.0963  -25.9756   31.9105 H   0  0  0  0  0  0  0  0  0  0  0  0
  -12.0167  -23.9784   34.0029 H   0  0  0  0  0  0  0  0  0  0  0  0
  -18.0171  -23.4475   32.8168 H   0  0  0  0  0  0  0  0  0  0  0  0
  -16.4432  -21.7297   34.8634 H   0  0  0  0  0  0  0  0  0  0  0  0
  -18.0868  -21.3983   34.2936 H   0  0  0  0  0  0  0  0  0  0  0  0
  -18.8829  -23.4973   35.1949 H   0  0  0  0  0  0  0  0  0  0  0  0
  -17.7673  -22.8930   36.4542 H   0  0  0  0  0  0  0  0  0  0  0  0
  -19.0222  -25.2152   36.7252 H   0  0  0  0  0  0  0  0  0  0  0  0
  -19.0865  -27.3655   37.9109 H   0  0  0  0  0  0  0  0  0  0  0  0
  -15.3406  -28.4031   36.5774 H   0  0  0  0  0  0  0  0  0  0  0  0
  -15.1103  -26.3025   35.2990 H   0  0  0  0  0  0  0  0  0  0  0  0
  -15.3227  -24.2848   33.8347 H   0  0  0  0  0  0  0  0  0  0  0  0
  -16.7195  -25.1833   33.2154 H   0  0  0  0  0  0  0  0  0  0  0  0
  1  2  1  0
  2  3  1  0
  3  4  2  0
  3  5  1  0
  5  6  1  0
  6  7  1  0
  7  8  2  0
  8  9  1  0
  9 10  2  0
 10 11  1  0
 11 12  2  0
  2 13  1  0
 13 14  1  0
 14 15  1  0
 15 16  1  0
 16 17  1  0
 17 18  2  0
 18 19  1  0
 19 20  2  0
 20 21  1  0
 21 22  2  0
 16 23  1  0
 12  7  1  0
 23 13  1  0
 22 17  1  0
  1 24  1  0
  1 25  1  0
  1 26  1  0
  5 27  1  0
  5 28  1  0
  6 29  1  0
  6 30  1  0
  8 31  1  0
 10 32  1  0
 12 33  1  0
 13 34  1  0
 14 35  1  0
 14 36  1  0
 15 37  1  0
 15 38  1  0
 18 39  1  0
 19 40  1  0
 21 41  1  0
 22 42  1  0
 23 43  1  0
 23 44  1  0
M  END
>  <Energy>  (145) 
100.34572581703857

>  <compound_id>  (145) 
34667

>  <target_id>  (145) 
1

>  <reference_id>  (145) 
82

>  <inspiration_ids>  (145) 
[82, 54]

>  <energy_score>  (145) 
47.04135236354804

>  <distance_score>  (145) 
5.625684909944156

>  <path>  (145) 
/opt/xchem-fragalysis-2/maxwin/BulkDock/SCRATCH/511015/C34667-P82/C34667-P82.minimised.mol

>  <scratch_subdir>  (145) 
/opt/xchem-fragalysis-2/maxwin/BulkDock/SCRATCH/511015/C34667-P82

>  <fragmenstein_runtime>  (145) 
9.789657354354858

>  <fragmenstein_outcome>  (145) 
too moved

>  <fragmenstein_mode>  (145) 
expansion

>  <fragmenstein_error>  (145) 


$$$$
C34667-P54
     RDKit          3D

 44 46  0  0  0  0  0  0  0  0999 V2000
  -15.2586  -28.1239   30.2178 C   0  0  0  0  0  0  0  0  0  0  0  0
  -14.0413  -27.5076   29.6646 N   0  0  0  0  0  0  0  0  0  0  0  0
  -13.8068  -26.1855   29.1693 C   0  0  0  0  0  0  0  0  0  0  0  0
  -14.5174  -25.2167   29.1629 O   0  0  0  0  0  0  0  0  0  0  0  0
  -12.4491  -26.1098   28.4638 C   0  0  0  0  0  0  0  0  0  0  0  0
  -11.2429  -25.6233   29.2577 C   0  0  0  0  0  0  0  0  0  0  0  0
  -11.1938  -24.2230   29.7851 C   0  0  0  0  0  0  0  0  0  0  0  0
  -10.2569  -23.8514   30.7323 C   0  0  0  0  0  0  0  0  0  0  0  0
  -10.1842  -22.6313   31.2928 N   0  0  0  0  0  0  0  0  0  0  0  0
  -11.0944  -21.7431   30.8644 C   0  0  0  0  0  0  0  0  0  0  0  0
  -11.9673  -21.9415   29.8664 N   0  0  0  0  0  0  0  0  0  0  0  0
  -11.9934  -23.1879   29.3536 C   0  0  0  0  0  0  0  0  0  0  0  0
  -13.5781  -27.6134   31.1583 C   0  0  0  0  0  0  0  0  0  0  0  0
  -12.6788  -28.8188   31.4365 C   0  0  0  0  0  0  0  0  0  0  0  0
  -12.3714  -28.7302   32.9388 C   0  0  0  0  0  0  0  0  0  0  0  0
  -13.3576  -27.8467   33.5432 N   0  0  0  0  0  0  0  0  0  0  0  0
  -12.8202  -26.7110   34.1953 C   0  0  0  0  0  0  0  0  0  0  0  0
  -11.1471  -25.8827   33.6439 C   0  0  0  0  0  0  0  0  0  0  0  0
  -10.8977  -23.9198   34.1205 C   0  0  0  0  0  0  0  0  0  0  0  0
  -12.2814  -22.8188   35.0272 N   0  0  0  0  0  0  0  0  0  0  0  0
  -13.9465  -23.7342   35.5740 C   0  0  0  0  0  0  0  0  0  0  0  0
  -14.1225  -25.6631   35.2717 C   0  0  0  0  0  0  0  0  0  0  0  0
  -14.3649  -27.4827   32.5175 C   0  0  0  0  0  0  0  0  0  0  0  0
  -15.1625  -29.1309   30.6435 H   0  0  0  0  0  0  0  0  0  0  0  0
  -15.9124  -27.4120   30.7397 H   0  0  0  0  0  0  0  0  0  0  0  0
  -15.8525  -28.3191   29.3108 H   0  0  0  0  0  0  0  0  0  0  0  0
  -12.2197  -27.1116   28.0749 H   0  0  0  0  0  0  0  0  0  0  0  0
  -12.5882  -25.4881   27.5694 H   0  0  0  0  0  0  0  0  0  0  0  0
  -11.0759  -26.3121   30.0919 H   0  0  0  0  0  0  0  0  0  0  0  0
  -10.3835  -25.7153   28.5826 H   0  0  0  0  0  0  0  0  0  0  0  0
   -9.5132  -24.5531   31.0984 H   0  0  0  0  0  0  0  0  0  0  0  0
  -11.1159  -20.7771   31.3576 H   0  0  0  0  0  0  0  0  0  0  0  0
  -12.7261  -23.3281   28.5655 H   0  0  0  0  0  0  0  0  0  0  0  0
  -12.8857  -26.7621   31.2282 H   0  0  0  0  0  0  0  0  0  0  0  0
  -11.7663  -28.7853   30.8332 H   0  0  0  0  0  0  0  0  0  0  0  0
  -13.1785  -29.7674   31.2130 H   0  0  0  0  0  0  0  0  0  0  0  0
  -12.4656  -29.7172   33.4032 H   0  0  0  0  0  0  0  0  0  0  0  0
  -11.3564  -28.3744   33.1114 H   0  0  0  0  0  0  0  0  0  0  0  0
  -10.4450  -26.3381   32.9649 H   0  0  0  0  0  0  0  0  0  0  0  0
  -10.0576  -23.3024   33.8039 H   0  0  0  0  0  0  0  0  0  0  0  0
  -14.6468  -23.0828   36.0934 H   0  0  0  0  0  0  0  0  0  0  0  0
  -15.0906  -26.1169   35.4885 H   0  0  0  0  0  0  0  0  0  0  0  0
  -15.1712  -28.2175   32.6261 H   0  0  0  0  0  0  0  0  0  0  0  0
  -14.8160  -26.4932   32.6358 H   0  0  0  0  0  0  0  0  0  0  0  0
  1  2  1  0
  2  3  1  0
  3  4  2  0
  3  5  1  0
  5  6  1  0
  6  7  1  0
  7  8  2  0
  8  9  1  0
  9 10  2  0
 10 11  1  0
 11 12  2  0
  2 13  1  0
 13 14  1  0
 14 15  1  0
 15 16  1  0
 16 17  1  0
 17 18  2  0
 18 19  1  0
 19 20  2  0
 20 21  1  0
 21 22  2  0
 16 23  1  0
 12  7  1  0
 23 13  1  0
 22 17  1  0
  1 24  1  0
  1 25  1  0
  1 26  1  0
  5 27  1  0
  5 28  1  0
  6 29  1  0
  6 30  1  0
  8 31  1  0
 10 32  1  0
 12 33  1  0
 13 34  1  0
 14 35  1  0
 14 36  1  0
 15 37  1  0
 15 38  1  0
 18 39  1  0
 19 40  1  0
 21 41  1  0
 22 42  1  0
 23 43  1  0
 23 44  1  0
M  END
>  <Energy>  (146) 
743.88989488181903

>  <compound_id>  (146) 
34667

>  <target_id>  (146) 
1

>  <reference_id>  (146) 
54

>  <inspiration_ids>  (146) 
[82, 54]

>  <energy_score>  (146) 
690.5855214283316

>  <distance_score>  (146) 
3.8021021874719967

>  <path>  (146) 
/opt/xchem-fragalysis-2/maxwin/BulkDock/SCRATCH/511015/C34667-P54/C34667-P54.minimised.mol

>  <scratch_subdir>  (146) 
/opt/xchem-fragalysis-2/maxwin/BulkDock/SCRATCH/511015/C34667-P54

>  <fragmenstein_runtime>  (146) 
7.731066942214966

>  <fragmenstein_outcome>  (146) 
too moved

>  <fragmenstein_mode>  (146) 
expansion

>  <fragmenstein_error>  (146) 


$$$$
C34668-P82
     RDKit          3D

 39 41  0  0  0  0  0  0  0  0999 V2000
  -12.3294  -25.3849   28.0165 C   0  0  0  0  0  0  0  0  0  0  0  0
  -11.5665  -24.7929   29.2157 C   0  0  0  0  0  0  0  0  0  0  0  0
  -12.3258  -23.5029   29.7038 C   0  0  0  0  0  0  0  0  0  0  0  0
  -12.2660  -22.4978   29.0354 O   0  0  0  0  0  0  0  0  0  0  0  0
  -13.0852  -23.7910   30.8883 N   0  0  0  0  0  0  0  0  0  0  0  0
  -14.1380  -22.9744   31.6159 C   0  0  0  0  0  0  0  0  0  0  0  0
  -12.2139  -23.4111   32.2380 C   0  0  0  0  0  0  0  0  0  0  0  0
  -12.1818  -21.9589   32.8318 C   0  0  0  0  0  0  0  0  0  0  0  0
  -13.1178  -21.4697   33.7683 C   0  0  0  0  0  0  0  0  0  0  0  0
  -12.9998  -20.2391   34.4119 C   0  0  0  0  0  0  0  0  0  0  0  0
  -11.8793  -19.5215   34.1528 C   0  0  0  0  0  0  0  0  0  0  0  0
  -11.0032  -19.9039   33.2087 N   0  0  0  0  0  0  0  0  0  0  0  0
  -11.2273  -21.0426   32.5159 C   0  0  0  0  0  0  0  0  0  0  0  0
  -10.9325  -24.2556   32.4102 C   0  0  0  0  0  0  0  0  0  0  0  0
  -12.0786  -24.4627   33.3233 C   0  0  0  0  0  0  0  0  0  0  0  0
  -10.1817  -24.5507   28.7330 C   0  0  0  0  0  0  0  0  0  0  0  0
   -9.0563  -25.0546   29.3105 C   0  0  0  0  0  0  0  0  0  0  0  0
   -7.7155  -24.5551   29.1094 N   0  0  0  0  0  0  0  0  0  0  0  0
   -7.4609  -23.4350   28.3343 C   0  0  0  0  0  0  0  0  0  0  0  0
   -8.5386  -22.9998   27.6770 N   0  0  0  0  0  0  0  0  0  0  0  0
   -9.8637  -23.5899   27.8254 C   0  0  0  0  0  0  0  0  0  0  0  0
  -13.3782  -25.5339   28.2445 H   0  0  0  0  0  0  0  0  0  0  0  0
  -11.9054  -26.3509   27.7184 H   0  0  0  0  0  0  0  0  0  0  0  0
  -12.3090  -24.7279   27.1388 H   0  0  0  0  0  0  0  0  0  0  0  0
  -11.5856  -25.5559   29.9984 H   0  0  0  0  0  0  0  0  0  0  0  0
  -15.0757  -23.0889   31.0702 H   0  0  0  0  0  0  0  0  0  0  0  0
  -14.4355  -23.4005   32.5809 H   0  0  0  0  0  0  0  0  0  0  0  0
  -14.0163  -21.8987   31.4689 H   0  0  0  0  0  0  0  0  0  0  0  0
  -13.9862  -22.0728   34.0196 H   0  0  0  0  0  0  0  0  0  0  0  0
  -13.7387  -19.8632   35.1045 H   0  0  0  0  0  0  0  0  0  0  0  0
  -11.6661  -18.5806   34.6496 H   0  0  0  0  0  0  0  0  0  0  0  0
  -10.5430  -21.1941   31.7095 H   0  0  0  0  0  0  0  0  0  0  0  0
  -10.0386  -23.7756   32.7833 H   0  0  0  0  0  0  0  0  0  0  0  0
  -10.7049  -25.1148   31.8002 H   0  0  0  0  0  0  0  0  0  0  0  0
  -12.6882  -25.3348   33.2193 H   0  0  0  0  0  0  0  0  0  0  0  0
  -11.9463  -24.1409   34.3457 H   0  0  0  0  0  0  0  0  0  0  0  0
   -9.1916  -25.7662   30.1206 H   0  0  0  0  0  0  0  0  0  0  0  0
   -6.5136  -23.0502   27.9949 H   0  0  0  0  0  0  0  0  0  0  0  0
  -10.6591  -23.0809   27.2825 H   0  0  0  0  0  0  0  0  0  0  0  0
  1  2  1  0
  2  3  1  0
  3  4  2  0
  3  5  1  0
  5  6  1  0
  5  7  1  0
  7  8  1  0
  8  9  2  0
  9 10  1  0
 10 11  2  0
 11 12  1  0
 12 13  2  0
  7 14  1  0
 14 15  1  0
  2 16  1  0
 16 17  2  0
 17 18  1  0
 18 19  2  0
 19 20  1  0
 20 21  2  0
 15  7  1  0
 21 16  1  0
 13  8  1  0
  1 22  1  0
  1 23  1  0
  1 24  1  0
  2 25  1  0
  6 26  1  0
  6 27  1  0
  6 28  1  0
  9 29  1  0
 10 30  1  0
 11 31  1  0
 13 32  1  0
 14 33  1  0
 14 34  1  0
 15 35  1  0
 15 36  1  0
 17 37  1  0
 19 38  1  0
 21 39  1  0
M  END
>  <Energy>  (147) 
138.95772552589688

>  <compound_id>  (147) 
34668

>  <target_id>  (147) 
1

>  <reference_id>  (147) 
82

>  <inspiration_ids>  (147) 
[82, 54]

>  <energy_score>  (147) 
66.02108363623853

>  <distance_score>  (147) 
2.7940828025196587

>  <path>  (147) 
/opt/xchem-fragalysis-2/maxwin/BulkDock/SCRATCH/511015/C34668-P82/C34668-P82.minimised.mol

>  <scratch_subdir>  (147) 
/opt/xchem-fragalysis-2/maxwin/BulkDock/SCRATCH/511015/C34668-P82

>  <fragmenstein_runtime>  (147) 
7.352002143859863

>  <fragmenstein_outcome>  (147) 
too moved

>  <fragmenstein_mode>  (147) 
expansion

>  <fragmenstein_error>  (147) 


$$$$
C34668-P54
     RDKit          3D

 39 41  0  0  0  0  0  0  0  0999 V2000
  -13.1154  -23.1417   25.7240 C   0  0  0  0  0  0  0  0  0  0  0  0
  -12.6447  -23.8923   26.9639 C   0  0  0  0  0  0  0  0  0  0  0  0
  -11.8159  -23.0254   27.9431 C   0  0  0  0  0  0  0  0  0  0  0  0
  -10.9820  -22.2714   27.5171 O   0  0  0  0  0  0  0  0  0  0  0  0
  -12.2857  -23.2300   29.2707 N   0  0  0  0  0  0  0  0  0  0  0  0
  -11.9705  -22.4868   30.5587 C   0  0  0  0  0  0  0  0  0  0  0  0
  -11.3539  -24.4727   30.0564 C   0  0  0  0  0  0  0  0  0  0  0  0
  -10.0606  -24.1742   30.8855 C   0  0  0  0  0  0  0  0  0  0  0  0
   -9.8201  -24.7076   32.1655 C   0  0  0  0  0  0  0  0  0  0  0  0
   -8.9406  -24.1235   33.0697 C   0  0  0  0  0  0  0  0  0  0  0  0
   -8.2601  -23.0214   32.6435 C   0  0  0  0  0  0  0  0  0  0  0  0
   -8.3291  -22.5970   31.3700 N   0  0  0  0  0  0  0  0  0  0  0  0
   -9.1581  -23.2128   30.5045 C   0  0  0  0  0  0  0  0  0  0  0  0
  -11.3496  -25.8994   29.4571 C   0  0  0  0  0  0  0  0  0  0  0  0
  -12.2867  -25.6383   30.5286 C   0  0  0  0  0  0  0  0  0  0  0  0
  -11.8305  -25.0749   26.5455 C   0  0  0  0  0  0  0  0  0  0  0  0
  -12.4062  -26.2819   26.2295 C   0  0  0  0  0  0  0  0  0  0  0  0
  -11.6861  -27.4022   26.1079 N   0  0  0  0  0  0  0  0  0  0  0  0
  -10.3570  -27.2941   26.3104 C   0  0  0  0  0  0  0  0  0  0  0  0
   -9.7004  -26.1664   26.5305 N   0  0  0  0  0  0  0  0  0  0  0  0
  -10.4532  -25.0720   26.6240 C   0  0  0  0  0  0  0  0  0  0  0  0
  -13.5827  -23.8204   25.0048 H   0  0  0  0  0  0  0  0  0  0  0  0
  -12.2978  -22.6112   25.2244 H   0  0  0  0  0  0  0  0  0  0  0  0
  -13.8891  -22.4186   25.9635 H   0  0  0  0  0  0  0  0  0  0  0  0
  -13.5355  -24.2516   27.4976 H   0  0  0  0  0  0  0  0  0  0  0  0
  -11.1290  -21.8076   30.3880 H   0  0  0  0  0  0  0  0  0  0  0  0
  -12.7980  -21.7680   30.6154 H   0  0  0  0  0  0  0  0  0  0  0  0
  -11.9410  -22.9789   31.5252 H   0  0  0  0  0  0  0  0  0  0  0  0
  -10.3585  -25.5860   32.4929 H   0  0  0  0  0  0  0  0  0  0  0  0
   -8.7923  -24.5121   34.0657 H   0  0  0  0  0  0  0  0  0  0  0  0
   -7.5634  -22.4906   33.2845 H   0  0  0  0  0  0  0  0  0  0  0  0
   -9.1689  -22.8053   29.4976 H   0  0  0  0  0  0  0  0  0  0  0  0
  -10.6212  -26.6410   29.7234 H   0  0  0  0  0  0  0  0  0  0  0  0
  -11.8830  -26.2212   28.5889 H   0  0  0  0  0  0  0  0  0  0  0  0
  -13.3124  -25.7100   30.1693 H   0  0  0  0  0  0  0  0  0  0  0  0
  -12.1157  -26.1811   31.4480 H   0  0  0  0  0  0  0  0  0  0  0  0
  -13.4818  -26.4024   26.1404 H   0  0  0  0  0  0  0  0  0  0  0  0
   -9.7438  -28.1850   26.2901 H   0  0  0  0  0  0  0  0  0  0  0  0
   -9.8939  -24.1755   26.8610 H   0  0  0  0  0  0  0  0  0  0  0  0
  1  2  1  0
  2  3  1  0
  3  4  2  0
  3  5  1  0
  5  6  1  0
  5  7  1  0
  7  8  1  0
  8  9  2  0
  9 10  1  0
 10 11  2  0
 11 12  1  0
 12 13  2  0
  7 14  1  0
 14 15  1  0
  2 16  1  0
 16 17  2  0
 17 18  1  0
 18 19  2  0
 19 20  1  0
 20 21  2  0
 15  7  1  0
 21 16  1  0
 13  8  1  0
  1 22  1  0
  1 23  1  0
  1 24  1  0
  2 25  1  0
  6 26  1  0
  6 27  1  0
  6 28  1  0
  9 29  1  0
 10 30  1  0
 11 31  1  0
 13 32  1  0
 14 33  1  0
 14 34  1  0
 15 35  1  0
 15 36  1  0
 17 37  1  0
 19 38  1  0
 21 39  1  0
M  END
>  <Energy>  (148) 
133.36583095452656

>  <compound_id>  (148) 
34668

>  <target_id>  (148) 
1

>  <reference_id>  (148) 
54

>  <inspiration_ids>  (148) 
[82, 54]

>  <energy_score>  (148) 
60.42918906486943

>  <distance_score>  (148) 
2.4405587532925823

>  <path>  (148) 
/opt/xchem-fragalysis-2/maxwin/BulkDock/SCRATCH/511015/C34668-P54/C34668-P54.minimised.mol

>  <scratch_subdir>  (148) 
/opt/xchem-fragalysis-2/maxwin/BulkDock/SCRATCH/511015/C34668-P54

>  <fragmenstein_runtime>  (148) 
6.922065734863281

>  <fragmenstein_outcome>  (148) 
too moved

>  <fragmenstein_mode>  (148) 
expansion

>  <fragmenstein_error>  (148) 


$$$$
C34669-P82
     RDKit          3D

 38 39  0  0  0  0  0  0  0  0999 V2000
  -14.2507  -22.7217   31.3311 C   0  0  0  0  0  0  0  0  0  0  0  0
  -13.1746  -23.7029   30.7276 C   0  0  0  0  0  0  0  0  0  0  0  0
  -12.1120  -23.5964   29.5879 N   0  0  0  0  0  0  0  0  0  0  0  0
  -11.7286  -22.3960   30.3427 C   0  0  0  0  0  0  0  0  0  0  0  0
  -11.2635  -22.5835   31.7748 C   0  0  0  0  0  0  0  0  0  0  0  0
  -10.8025  -23.8303   32.2275 C   0  0  0  0  0  0  0  0  0  0  0  0
  -11.3013  -24.2396   33.4279 C   0  0  0  0  0  0  0  0  0  0  0  0
  -12.0082  -23.4047   34.2010 N   0  0  0  0  0  0  0  0  0  0  0  0
  -12.1139  -22.1080   33.8408 C   0  0  0  0  0  0  0  0  0  0  0  0
  -11.6706  -21.6261   32.6615 C   0  0  0  0  0  0  0  0  0  0  0  0
  -12.2556  -23.2808   28.2144 C   0  0  0  0  0  0  0  0  0  0  0  0
  -13.2127  -22.9259   27.5909 O   0  0  0  0  0  0  0  0  0  0  0  0
  -11.0802  -23.5149   27.3720 C   0  0  0  0  0  0  0  0  0  0  0  0
  -11.2258  -24.9444   26.8768 C   0  0  0  0  0  0  0  0  0  0  0  0
  -10.9555  -25.8701   28.0063 C   0  0  0  0  0  0  0  0  0  0  0  0
   -9.9170  -25.6626   28.8835 C   0  0  0  0  0  0  0  0  0  0  0  0
   -9.7942  -26.2462   30.0694 N   0  0  0  0  0  0  0  0  0  0  0  0
  -10.7157  -27.1519   30.3416 C   0  0  0  0  0  0  0  0  0  0  0  0
  -11.7421  -27.5081   29.5398 N   0  0  0  0  0  0  0  0  0  0  0  0
  -11.8421  -26.8399   28.3811 C   0  0  0  0  0  0  0  0  0  0  0  0
  -13.8782  -21.7759   31.7088 H   0  0  0  0  0  0  0  0  0  0  0  0
  -14.7025  -23.2213   32.1978 H   0  0  0  0  0  0  0  0  0  0  0  0
  -15.0882  -22.4392   30.6968 H   0  0  0  0  0  0  0  0  0  0  0  0
  -13.6807  -24.5453   30.2973 H   0  0  0  0  0  0  0  0  0  0  0  0
  -12.8169  -24.3305   31.5408 H   0  0  0  0  0  0  0  0  0  0  0  0
  -10.9281  -21.9303   29.7605 H   0  0  0  0  0  0  0  0  0  0  0  0
  -12.4721  -21.6067   30.2048 H   0  0  0  0  0  0  0  0  0  0  0  0
  -10.3620  -24.5556   31.5636 H   0  0  0  0  0  0  0  0  0  0  0  0
  -11.1869  -25.2523   33.7929 H   0  0  0  0  0  0  0  0  0  0  0  0
  -12.5494  -21.4028   34.5348 H   0  0  0  0  0  0  0  0  0  0  0  0
  -11.8143  -20.5985   32.4136 H   0  0  0  0  0  0  0  0  0  0  0  0
  -11.2324  -22.8554   26.5283 H   0  0  0  0  0  0  0  0  0  0  0  0
  -10.1562  -23.2718   27.8778 H   0  0  0  0  0  0  0  0  0  0  0  0
  -12.2391  -25.1167   26.4873 H   0  0  0  0  0  0  0  0  0  0  0  0
  -10.5729  -25.1223   26.0383 H   0  0  0  0  0  0  0  0  0  0  0  0
   -9.1466  -24.9364   28.7058 H   0  0  0  0  0  0  0  0  0  0  0  0
  -10.5801  -27.6887   31.2736 H   0  0  0  0  0  0  0  0  0  0  0  0
  -12.7004  -27.0892   27.7676 H   0  0  0  0  0  0  0  0  0  0  0  0
  1  2  1  0
  2  3  1  0
  3  4  1  0
  4  5  1  0
  5  6  2  0
  6  7  1  0
  7  8  2  0
  8  9  1  0
  9 10  2  0
  3 11  1  0
 11 12  2  0
 11 13  1  0
 13 14  1  0
 14 15  1  0
 15 16  2  0
 16 17  1  0
 17 18  2  0
 18 19  1  0
 19 20  2  0
 10  5  1  0
 20 15  1  0
  1 21  1  0
  1 22  1  0
  1 23  1  0
  2 24  1  0
  2 25  1  0
  4 26  1  0
  4 27  1  0
  6 28  1  0
  7 29  1  0
  9 30  1  0
 10 31  1  0
 13 32  1  0
 13 33  1  0
 14 34  1  0
 14 35  1  0
 16 36  1  0
 18 37  1  0
 20 38  1  0
M  END
>  <Energy>  (149) 
139.95761678913348

>  <compound_id>  (149) 
34669

>  <target_id>  (149) 
1

>  <reference_id>  (149) 
82

>  <inspiration_ids>  (149) 
[82, 54]

>  <energy_score>  (149) 
126.44580527489688

>  <distance_score>  (149) 
2.9467140334603115

>  <path>  (149) 
/opt/xchem-fragalysis-2/maxwin/BulkDock/SCRATCH/511015/C34669-P82/C34669-P82.minimised.mol

>  <scratch_subdir>  (149) 
/opt/xchem-fragalysis-2/maxwin/BulkDock/SCRATCH/511015/C34669-P82

>  <fragmenstein_runtime>  (149) 
4.910613536834717

>  <fragmenstein_outcome>  (149) 
too moved

>  <fragmenstein_mode>  (149) 
expansion

>  <fragmenstein_error>  (149) 


$$$$
C34669-P54
     RDKit          3D

 38 39  0  0  0  0  0  0  0  0999 V2000
  -16.0687  -27.8886   26.5269 C   0  0  0  0  0  0  0  0  0  0  0  0
  -15.7304  -26.9902   27.7238 C   0  0  0  0  0  0  0  0  0  0  0  0
  -14.2970  -26.5439   27.5495 N   0  0  0  0  0  0  0  0  0  0  0  0
  -14.5683  -25.8831   28.8947 C   0  0  0  0  0  0  0  0  0  0  0  0
  -14.2209  -26.7084   30.1259 C   0  0  0  0  0  0  0  0  0  0  0  0
  -12.9740  -27.3185   30.2674 C   0  0  0  0  0  0  0  0  0  0  0  0
  -12.6610  -27.9206   31.4738 C   0  0  0  0  0  0  0  0  0  0  0  0
  -13.4919  -27.9583   32.5351 N   0  0  0  0  0  0  0  0  0  0  0  0
  -14.7141  -27.4170   32.3636 C   0  0  0  0  0  0  0  0  0  0  0  0
  -15.1198  -26.7895   31.1964 C   0  0  0  0  0  0  0  0  0  0  0  0
  -13.7171  -25.5980   26.6455 C   0  0  0  0  0  0  0  0  0  0  0  0
  -14.2341  -24.8530   25.8570 O   0  0  0  0  0  0  0  0  0  0  0  0
  -12.1927  -25.7122   26.7151 C   0  0  0  0  0  0  0  0  0  0  0  0
  -11.4724  -24.3586   26.7424 C   0  0  0  0  0  0  0  0  0  0  0  0
  -11.3554  -23.7201   28.0939 C   0  0  0  0  0  0  0  0  0  0  0  0
  -11.5833  -22.3725   28.2858 C   0  0  0  0  0  0  0  0  0  0  0  0
  -11.5428  -21.7667   29.4890 N   0  0  0  0  0  0  0  0  0  0  0  0
  -11.2023  -22.5462   30.5256 C   0  0  0  0  0  0  0  0  0  0  0  0
  -10.8898  -23.8493   30.4566 N   0  0  0  0  0  0  0  0  0  0  0  0
  -10.9580  -24.3957   29.2294 C   0  0  0  0  0  0  0  0  0  0  0  0
  -16.0059  -27.3212   25.5938 H   0  0  0  0  0  0  0  0  0  0  0  0
  -15.3774  -28.7351   26.4621 H   0  0  0  0  0  0  0  0  0  0  0  0
  -17.0873  -28.2785   26.6188 H   0  0  0  0  0  0  0  0  0  0  0  0
  -16.4486  -26.1603   27.6293 H   0  0  0  0  0  0  0  0  0  0  0  0
  -15.9117  -27.6287   28.5985 H   0  0  0  0  0  0  0  0  0  0  0  0
  -15.4867  -25.2796   29.0068 H   0  0  0  0  0  0  0  0  0  0  0  0
  -13.8285  -25.0688   28.9490 H   0  0  0  0  0  0  0  0  0  0  0  0
  -12.2474  -27.3258   29.4662 H   0  0  0  0  0  0  0  0  0  0  0  0
  -11.7023  -28.4033   31.6196 H   0  0  0  0  0  0  0  0  0  0  0  0
  -15.3772  -27.4824   33.2219 H   0  0  0  0  0  0  0  0  0  0  0  0
  -16.1058  -26.3368   31.1454 H   0  0  0  0  0  0  0  0  0  0  0  0
  -11.8771  -26.3609   27.5335 H   0  0  0  0  0  0  0  0  0  0  0  0
  -11.9040  -26.2436   25.7994 H   0  0  0  0  0  0  0  0  0  0  0  0
  -10.4542  -24.4998   26.3627 H   0  0  0  0  0  0  0  0  0  0  0  0
  -11.9666  -23.6577   26.0598 H   0  0  0  0  0  0  0  0  0  0  0  0
  -11.8262  -21.7165   27.4524 H   0  0  0  0  0  0  0  0  0  0  0  0
  -11.1809  -22.0825   31.5062 H   0  0  0  0  0  0  0  0  0  0  0  0
  -10.6733  -25.4403   29.1959 H   0  0  0  0  0  0  0  0  0  0  0  0
  1  2  1  0
  2  3  1  0
  3  4  1  0
  4  5  1  0
  5  6  2  0
  6  7  1  0
  7  8  2  0
  8  9  1  0
  9 10  2  0
  3 11  1  0
 11 12  2  0
 11 13  1  0
 13 14  1  0
 14 15  1  0
 15 16  2  0
 16 17  1  0
 17 18  2  0
 18 19  1  0
 19 20  2  0
 10  5  1  0
 20 15  1  0
  1 21  1  0
  1 22  1  0
  1 23  1  0
  2 24  1  0
  2 25  1  0
  4 26  1  0
  4 27  1  0
  6 28  1  0
  7 29  1  0
  9 30  1  0
 10 31  1  0
 13 32  1  0
 13 33  1  0
 14 34  1  0
 14 35  1  0
 16 36  1  0
 18 37  1  0
 20 38  1  0
M  END
>  <Energy>  (150) 
67.32909527063218

>  <compound_id>  (150) 
34669

>  <target_id>  (150) 
1

>  <reference_id>  (150) 
54

>  <inspiration_ids>  (150) 
[82, 54]

>  <energy_score>  (150) 
53.81728375639466

>  <distance_score>  (150) 
2.7061186534112878

>  <path>  (150) 
/opt/xchem-fragalysis-2/maxwin/BulkDock/SCRATCH/511015/C34669-P54/C34669-P54.minimised.mol

>  <scratch_subdir>  (150) 
/opt/xchem-fragalysis-2/maxwin/BulkDock/SCRATCH/511015/C34669-P54

>  <fragmenstein_runtime>  (150) 
4.976976633071899

>  <fragmenstein_outcome>  (150) 
too moved

>  <fragmenstein_mode>  (150) 
expansion

>  <fragmenstein_error>  (150) 


$$$$
C34670-P82
     RDKit          3D

 37 39  0  0  0  0  0  0  0  0999 V2000
  -13.9206  -28.4295   27.3278 C   0  0  0  0  0  0  0  0  0  0  0  0
  -12.5419  -28.1903   27.9341 C   0  0  0  0  0  0  0  0  0  0  0  0
  -12.0717  -26.8255   28.5213 C   0  0  0  0  0  0  0  0  0  0  0  0
  -12.9725  -25.5598   28.3792 C   0  0  0  0  0  0  0  0  0  0  0  0
  -12.4514  -24.3214   27.7952 N   0  0  0  0  0  0  0  0  0  0  0  0
  -12.1124  -23.2900   28.5684 N   0  0  0  0  0  0  0  0  0  0  0  0
  -10.9121  -23.8029   28.8557 C   0  0  0  0  0  0  0  0  0  0  0  0
  -10.7185  -24.2699   30.2545 C   0  0  0  0  0  0  0  0  0  0  0  0
  -11.5959  -23.8320   31.2654 C   0  0  0  0  0  0  0  0  0  0  0  0
  -11.4477  -24.3117   32.5577 C   0  0  0  0  0  0  0  0  0  0  0  0
  -10.4201  -25.1993   32.8077 C   0  0  0  0  0  0  0  0  0  0  0  0
   -9.5902  -25.5604   31.7603 C   0  0  0  0  0  0  0  0  0  0  0  0
   -9.7289  -25.1474   30.4851 N   0  0  0  0  0  0  0  0  0  0  0  0
  -10.3701  -24.3739   27.6555 N   0  0  0  0  0  0  0  0  0  0  0  0
  -11.4530  -24.4738   26.8740 C   0  0  0  0  0  0  0  0  0  0  0  0
  -11.9178  -25.2293   25.7245 C   0  0  0  0  0  0  0  0  0  0  0  0
  -13.2226  -24.9715   25.2774 C   0  0  0  0  0  0  0  0  0  0  0  0
  -14.0332  -25.8868   24.6946 N   0  0  0  0  0  0  0  0  0  0  0  0
  -13.4586  -27.0758   24.4513 C   0  0  0  0  0  0  0  0  0  0  0  0
  -12.2053  -27.4229   24.7849 N   0  0  0  0  0  0  0  0  0  0  0  0
  -11.4708  -26.4965   25.4422 C   0  0  0  0  0  0  0  0  0  0  0  0
  -13.8495  -29.2036   26.5546 H   0  0  0  0  0  0  0  0  0  0  0  0
  -14.3685  -27.5482   26.8762 H   0  0  0  0  0  0  0  0  0  0  0  0
  -14.6218  -28.8295   28.0663 H   0  0  0  0  0  0  0  0  0  0  0  0
  -12.4501  -28.9374   28.7253 H   0  0  0  0  0  0  0  0  0  0  0  0
  -11.8158  -28.5035   27.1802 H   0  0  0  0  0  0  0  0  0  0  0  0
  -11.9113  -26.9871   29.5953 H   0  0  0  0  0  0  0  0  0  0  0  0
  -11.0520  -26.6558   28.1713 H   0  0  0  0  0  0  0  0  0  0  0  0
  -13.2515  -25.2477   29.3814 H   0  0  0  0  0  0  0  0  0  0  0  0
  -13.8304  -25.7680   27.7541 H   0  0  0  0  0  0  0  0  0  0  0  0
  -12.4095  -23.1476   31.0398 H   0  0  0  0  0  0  0  0  0  0  0  0
  -12.1310  -24.0118   33.3470 H   0  0  0  0  0  0  0  0  0  0  0  0
  -10.2681  -25.6179   33.7925 H   0  0  0  0  0  0  0  0  0  0  0  0
   -8.7426  -26.2110   31.9242 H   0  0  0  0  0  0  0  0  0  0  0  0
  -13.6970  -24.0053   25.4533 H   0  0  0  0  0  0  0  0  0  0  0  0
  -14.0554  -27.8187   23.9366 H   0  0  0  0  0  0  0  0  0  0  0  0
  -10.5412  -26.8853   25.8442 H   0  0  0  0  0  0  0  0  0  0  0  0
  1  2  1  0
  2  3  1  0
  3  4  1  0
  4  5  1  0
  5  6  1  0
  6  7  2  0
  7  8  1  0
  8  9  2  0
  9 10  1  0
 10 11  2  0
 11 12  1  0
 12 13  2  0
  7 14  1  0
 14 15  2  0
 15 16  1  0
 16 17  2  0
 17 18  1  0
 18 19  2  0
 19 20  1  0
 20 21  2  0
 15  5  1  0
 21 16  1  0
 13  8  1  0
  1 22  1  0
  1 23  1  0
  1 24  1  0
  2 25  1  0
  2 26  1  0
  3 27  1  0
  3 28  1  0
  4 29  1  0
  4 30  1  0
  9 31  1  0
 10 32  1  0
 11 33  1  0
 12 34  1  0
 17 35  1  0
 19 36  1  0
 21 37  1  0
M  END
>  <Energy>  (151) 
175.31354602822822

>  <compound_id>  (151) 
34670

>  <target_id>  (151) 
1

>  <reference_id>  (151) 
82

>  <inspiration_ids>  (151) 
[82, 54]

>  <energy_score>  (151) 
79.1650612681517

>  <distance_score>  (151) 
3.416615490129048

>  <path>  (151) 
/opt/xchem-fragalysis-2/maxwin/BulkDock/SCRATCH/511015/C34670-P82/C34670-P82.minimised.mol

>  <scratch_subdir>  (151) 
/opt/xchem-fragalysis-2/maxwin/BulkDock/SCRATCH/511015/C34670-P82

>  <fragmenstein_runtime>  (151) 
9.902517557144165

>  <fragmenstein_outcome>  (151) 
too moved

>  <fragmenstein_mode>  (151) 
expansion

>  <fragmenstein_error>  (151) 


$$$$
C34670-P54
     RDKit          3D

 37 39  0  0  0  0  0  0  0  0999 V2000
  -10.0086  -25.2911   32.0029 C   0  0  0  0  0  0  0  0  0  0  0  0
  -10.5745  -25.5559   30.6086 C   0  0  0  0  0  0  0  0  0  0  0  0
  -12.0232  -25.2322   30.6051 C   0  0  0  0  0  0  0  0  0  0  0  0
  -12.6720  -24.7996   29.3063 C   0  0  0  0  0  0  0  0  0  0  0  0
  -12.1690  -23.4923   28.8971 N   0  0  0  0  0  0  0  0  0  0  0  0
  -12.1879  -22.4843   29.7612 N   0  0  0  0  0  0  0  0  0  0  0  0
  -10.8663  -22.2283   29.8417 C   0  0  0  0  0  0  0  0  0  0  0  0
  -10.2473  -21.9778   31.1608 C   0  0  0  0  0  0  0  0  0  0  0  0
  -10.9956  -21.3847   32.1765 C   0  0  0  0  0  0  0  0  0  0  0  0
  -10.5181  -21.4227   33.4845 C   0  0  0  0  0  0  0  0  0  0  0  0
   -9.3012  -22.0340   33.7453 C   0  0  0  0  0  0  0  0  0  0  0  0
   -8.5775  -22.5285   32.6809 C   0  0  0  0  0  0  0  0  0  0  0  0
   -9.0284  -22.5436   31.4010 N   0  0  0  0  0  0  0  0  0  0  0  0
  -10.1993  -22.6336   28.6788 N   0  0  0  0  0  0  0  0  0  0  0  0
  -11.1176  -23.3303   28.0304 C   0  0  0  0  0  0  0  0  0  0  0  0
  -11.0761  -24.2788   26.9458 C   0  0  0  0  0  0  0  0  0  0  0  0
  -12.2653  -24.5191   26.2730 C   0  0  0  0  0  0  0  0  0  0  0  0
  -12.6470  -25.7460   25.8613 N   0  0  0  0  0  0  0  0  0  0  0  0
  -11.7488  -26.7192   26.0539 C   0  0  0  0  0  0  0  0  0  0  0  0
  -10.5190  -26.5822   26.5608 N   0  0  0  0  0  0  0  0  0  0  0  0
  -10.2156  -25.3528   27.0246 C   0  0  0  0  0  0  0  0  0  0  0  0
  -10.3307  -24.3344   32.3881 H   0  0  0  0  0  0  0  0  0  0  0  0
   -8.9200  -25.2358   32.0089 H   0  0  0  0  0  0  0  0  0  0  0  0
  -10.3480  -26.0399   32.7240 H   0  0  0  0  0  0  0  0  0  0  0  0
  -10.5408  -26.6026   30.3128 H   0  0  0  0  0  0  0  0  0  0  0  0
  -10.0031  -24.9682   29.8934 H   0  0  0  0  0  0  0  0  0  0  0  0
  -12.5612  -26.0956   31.0163 H   0  0  0  0  0  0  0  0  0  0  0  0
  -12.0559  -24.3931   31.2849 H   0  0  0  0  0  0  0  0  0  0  0  0
  -13.7586  -24.7080   29.3650 H   0  0  0  0  0  0  0  0  0  0  0  0
  -12.4875  -25.5711   28.5648 H   0  0  0  0  0  0  0  0  0  0  0  0
  -11.9732  -20.9573   31.9722 H   0  0  0  0  0  0  0  0  0  0  0  0
  -11.1126  -21.0029   34.2931 H   0  0  0  0  0  0  0  0  0  0  0  0
   -8.9161  -22.1212   34.7507 H   0  0  0  0  0  0  0  0  0  0  0  0
   -7.6001  -22.9724   32.8441 H   0  0  0  0  0  0  0  0  0  0  0  0
  -13.0280  -23.7469   26.1713 H   0  0  0  0  0  0  0  0  0  0  0  0
  -12.0719  -27.7063   25.7739 H   0  0  0  0  0  0  0  0  0  0  0  0
   -9.2900  -25.2910   27.5926 H   0  0  0  0  0  0  0  0  0  0  0  0
  1  2  1  0
  2  3  1  0
  3  4  1  0
  4  5  1  0
  5  6  1  0
  6  7  2  0
  7  8  1  0
  8  9  2  0
  9 10  1  0
 10 11  2  0
 11 12  1  0
 12 13  2  0
  7 14  1  0
 14 15  2  0
 15 16  1  0
 16 17  2  0
 17 18  1  0
 18 19  2  0
 19 20  1  0
 20 21  2  0
 15  5  1  0
 21 16  1  0
 13  8  1  0
  1 22  1  0
  1 23  1  0
  1 24  1  0
  2 25  1  0
  2 26  1  0
  3 27  1  0
  3 28  1  0
  4 29  1  0
  4 30  1  0
  9 31  1  0
 10 32  1  0
 11 33  1  0
 12 34  1  0
 17 35  1  0
 19 36  1  0
 21 37  1  0
M  END
>  <Energy>  (152) 
134.88930292912008

>  <compound_id>  (152) 
34670

>  <target_id>  (152) 
1

>  <reference_id>  (152) 
54

>  <inspiration_ids>  (152) 
[82, 54]

>  <energy_score>  (152) 
36.409879731689955

>  <distance_score>  (152) 
1.6125974729211228

>  <path>  (152) 
/opt/xchem-fragalysis-2/maxwin/BulkDock/SCRATCH/511015/C34670-P54/C34670-P54.minimised.mol

>  <scratch_subdir>  (152) 
/opt/xchem-fragalysis-2/maxwin/BulkDock/SCRATCH/511015/C34670-P54

>  <fragmenstein_runtime>  (152) 
7.4334681034088135

>  <fragmenstein_outcome>  (152) 
too moved

>  <fragmenstein_mode>  (152) 
expansion

>  <fragmenstein_error>  (152) 


$$$$
C34671-P82
     RDKit          3D

 37 39  0  0  0  0  0  0  0  0999 V2000
  -14.6789  -26.5630   25.8984 C   0  0  0  0  0  0  0  0  0  0  0  0
  -13.6803  -25.6361   25.2377 C   0  0  0  0  0  0  0  0  0  0  0  0
  -13.0039  -24.5438   26.0727 C   0  0  0  0  0  0  0  0  0  0  0  0
  -12.3104  -23.5370   25.1630 C   0  0  0  0  0  0  0  0  0  0  0  0
  -12.0812  -24.9048   27.1307 N   0  0  0  0  0  0  0  0  0  0  0  0
  -11.9000  -23.9939   28.1148 N   0  0  0  0  0  0  0  0  0  0  0  0
  -11.1808  -24.6797   29.0046 C   0  0  0  0  0  0  0  0  0  0  0  0
  -11.1508  -24.4317   30.4342 C   0  0  0  0  0  0  0  0  0  0  0  0
  -12.0012  -23.4950   31.0243 C   0  0  0  0  0  0  0  0  0  0  0  0
  -11.9913  -23.3815   32.3998 C   0  0  0  0  0  0  0  0  0  0  0  0
  -11.1896  -24.1140   33.1975 N   0  0  0  0  0  0  0  0  0  0  0  0
  -10.3851  -25.0189   32.6086 C   0  0  0  0  0  0  0  0  0  0  0  0
  -10.3345  -25.2180   31.2486 C   0  0  0  0  0  0  0  0  0  0  0  0
  -10.6379  -25.8141   28.4762 N   0  0  0  0  0  0  0  0  0  0  0  0
  -11.4124  -26.0639   27.4367 C   0  0  0  0  0  0  0  0  0  0  0  0
  -11.8695  -27.4112   27.1809 C   0  0  0  0  0  0  0  0  0  0  0  0
  -11.9284  -28.1274   26.0232 C   0  0  0  0  0  0  0  0  0  0  0  0
  -12.5392  -29.3391   25.9388 N   0  0  0  0  0  0  0  0  0  0  0  0
  -13.0388  -29.8656   27.0653 C   0  0  0  0  0  0  0  0  0  0  0  0
  -12.9522  -29.3037   28.2671 N   0  0  0  0  0  0  0  0  0  0  0  0
  -12.3136  -28.1151   28.2788 C   0  0  0  0  0  0  0  0  0  0  0  0
  -14.7137  -27.5182   25.3628 H   0  0  0  0  0  0  0  0  0  0  0  0
  -15.6904  -26.1592   25.8121 H   0  0  0  0  0  0  0  0  0  0  0  0
  -14.4540  -26.7633   26.9394 H   0  0  0  0  0  0  0  0  0  0  0  0
  -14.2325  -25.1523   24.4216 H   0  0  0  0  0  0  0  0  0  0  0  0
  -12.9200  -26.2452   24.7568 H   0  0  0  0  0  0  0  0  0  0  0  0
  -13.7979  -23.9887   26.5520 H   0  0  0  0  0  0  0  0  0  0  0  0
  -12.0595  -22.6504   25.7463 H   0  0  0  0  0  0  0  0  0  0  0  0
  -11.3806  -23.9406   24.7508 H   0  0  0  0  0  0  0  0  0  0  0  0
  -12.9574  -23.2061   24.3443 H   0  0  0  0  0  0  0  0  0  0  0  0
  -12.6903  -22.9036   30.4321 H   0  0  0  0  0  0  0  0  0  0  0  0
  -12.6538  -22.6931   32.9147 H   0  0  0  0  0  0  0  0  0  0  0  0
   -9.7684  -25.6078   33.2777 H   0  0  0  0  0  0  0  0  0  0  0  0
   -9.6892  -25.9901   30.8451 H   0  0  0  0  0  0  0  0  0  0  0  0
  -11.4988  -27.7731   25.0925 H   0  0  0  0  0  0  0  0  0  0  0  0
  -13.5360  -30.8259   26.9924 H   0  0  0  0  0  0  0  0  0  0  0  0
  -12.1127  -27.7087   29.2707 H   0  0  0  0  0  0  0  0  0  0  0  0
  1  2  1  0
  2  3  1  0
  3  4  1  0
  3  5  1  0
  5  6  1  0
  6  7  2  0
  7  8  1  0
  8  9  2  0
  9 10  1  0
 10 11  2  0
 11 12  1  0
 12 13  2  0
  7 14  1  0
 14 15  2  0
 15 16  1  0
 16 17  2  0
 17 18  1  0
 18 19  2  0
 19 20  1  0
 20 21  2  0
 15  5  1  0
 21 16  1  0
 13  8  1  0
  1 22  1  0
  1 23  1  0
  1 24  1  0
  2 25  1  0
  2 26  1  0
  3 27  1  0
  4 28  1  0
  4 29  1  0
  4 30  1  0
  9 31  1  0
 10 32  1  0
 12 33  1  0
 13 34  1  0
 17 35  1  0
 19 36  1  0
 21 37  1  0
M  END
>  <Energy>  (153) 
60.57668036576861

>  <compound_id>  (153) 
34671

>  <target_id>  (153) 
1

>  <reference_id>  (153) 
82

>  <inspiration_ids>  (153) 
[82, 54]

>  <energy_score>  (153) 
-2.163392273726487

>  <distance_score>  (153) 
3.9156712307392083

>  <path>  (153) 
/opt/xchem-fragalysis-2/maxwin/BulkDock/SCRATCH/511015/C34671-P82/C34671-P82.minimised.mol

>  <scratch_subdir>  (153) 
/opt/xchem-fragalysis-2/maxwin/BulkDock/SCRATCH/511015/C34671-P82

>  <fragmenstein_runtime>  (153) 
10.422166347503662

>  <fragmenstein_outcome>  (153) 
too moved

>  <fragmenstein_mode>  (153) 
expansion

>  <fragmenstein_error>  (153) 


$$$$
C34671-P54
     RDKit          3D

 37 39  0  0  0  0  0  0  0  0999 V2000
  -11.7476  -27.2300   29.7699 C   0  0  0  0  0  0  0  0  0  0  0  0
  -12.5645  -26.0328   30.1843 C   0  0  0  0  0  0  0  0  0  0  0  0
  -13.1434  -25.1297   29.0629 C   0  0  0  0  0  0  0  0  0  0  0  0
  -13.8211  -25.8883   27.9216 C   0  0  0  0  0  0  0  0  0  0  0  0
  -12.2942  -23.9632   28.8084 N   0  0  0  0  0  0  0  0  0  0  0  0
  -12.3456  -22.9873   29.7356 N   0  0  0  0  0  0  0  0  0  0  0  0
  -11.0511  -22.7058   29.9245 C   0  0  0  0  0  0  0  0  0  0  0  0
  -10.4702  -22.4592   31.2415 C   0  0  0  0  0  0  0  0  0  0  0  0
  -11.0528  -21.5895   32.1559 C   0  0  0  0  0  0  0  0  0  0  0  0
  -10.5275  -21.5365   33.4397 C   0  0  0  0  0  0  0  0  0  0  0  0
   -9.4719  -22.2741   33.8618 N   0  0  0  0  0  0  0  0  0  0  0  0
   -8.8994  -23.0817   32.9492 C   0  0  0  0  0  0  0  0  0  0  0  0
   -9.3637  -23.2148   31.6503 C   0  0  0  0  0  0  0  0  0  0  0  0
  -10.2914  -23.0796   28.8549 N   0  0  0  0  0  0  0  0  0  0  0  0
  -11.0823  -23.8894   28.1715 C   0  0  0  0  0  0  0  0  0  0  0  0
  -10.6024  -24.8973   27.2825 C   0  0  0  0  0  0  0  0  0  0  0  0
   -9.3997  -25.4738   27.5652 C   0  0  0  0  0  0  0  0  0  0  0  0
   -8.9927  -26.6552   27.0763 N   0  0  0  0  0  0  0  0  0  0  0  0
   -9.8174  -27.2320   26.2096 C   0  0  0  0  0  0  0  0  0  0  0  0
  -10.9719  -26.7131   25.7642 N   0  0  0  0  0  0  0  0  0  0  0  0
  -11.3274  -25.5358   26.3213 C   0  0  0  0  0  0  0  0  0  0  0  0
  -10.8930  -26.9497   29.1704 H   0  0  0  0  0  0  0  0  0  0  0  0
  -12.3468  -27.9395   29.1909 H   0  0  0  0  0  0  0  0  0  0  0  0
  -11.3928  -27.7684   30.6531 H   0  0  0  0  0  0  0  0  0  0  0  0
  -11.9580  -25.4522   30.8880 H   0  0  0  0  0  0  0  0  0  0  0  0
  -13.4115  -26.4488   30.7455 H   0  0  0  0  0  0  0  0  0  0  0  0
  -14.0327  -24.6583   29.4756 H   0  0  0  0  0  0  0  0  0  0  0  0
  -14.1654  -25.2051   27.1388 H   0  0  0  0  0  0  0  0  0  0  0  0
  -13.1973  -26.6675   27.4847 H   0  0  0  0  0  0  0  0  0  0  0  0
  -14.7089  -26.4084   28.3037 H   0  0  0  0  0  0  0  0  0  0  0  0
  -11.9258  -20.9978   31.9004 H   0  0  0  0  0  0  0  0  0  0  0  0
  -10.9736  -20.8918   34.1944 H   0  0  0  0  0  0  0  0  0  0  0  0
   -8.0335  -23.6381   33.2976 H   0  0  0  0  0  0  0  0  0  0  0  0
   -8.8849  -23.9110   30.9722 H   0  0  0  0  0  0  0  0  0  0  0  0
   -8.7182  -25.0161   28.2810 H   0  0  0  0  0  0  0  0  0  0  0  0
   -9.4658  -28.1539   25.7777 H   0  0  0  0  0  0  0  0  0  0  0  0
  -12.2778  -25.1392   25.9830 H   0  0  0  0  0  0  0  0  0  0  0  0
  1  2  1  0
  2  3  1  0
  3  4  1  0
  3  5  1  0
  5  6  1  0
  6  7  2  0
  7  8  1  0
  8  9  2  0
  9 10  1  0
 10 11  2  0
 11 12  1  0
 12 13  2  0
  7 14  1  0
 14 15  2  0
 15 16  1  0
 16 17  2  0
 17 18  1  0
 18 19  2  0
 19 20  1  0
 20 21  2  0
 15  5  1  0
 21 16  1  0
 13  8  1  0
  1 22  1  0
  1 23  1  0
  1 24  1  0
  2 25  1  0
  2 26  1  0
  3 27  1  0
  4 28  1  0
  4 29  1  0
  4 30  1  0
  9 31  1  0
 10 32  1  0
 12 33  1  0
 13 34  1  0
 17 35  1  0
 19 36  1  0
 21 37  1  0
M  END
>  <Energy>  (154) 
64.28147393349991

>  <compound_id>  (154) 
34671

>  <target_id>  (154) 
1

>  <reference_id>  (154) 
54

>  <inspiration_ids>  (154) 
[82, 54]

>  <energy_score>  (154) 
1.8800357765689455

>  <distance_score>  (154) 
2.0090167533736945

>  <path>  (154) 
/opt/xchem-fragalysis-2/maxwin/BulkDock/SCRATCH/511015/C34671-P54/C34671-P54.minimised.mol

>  <scratch_subdir>  (154) 
/opt/xchem-fragalysis-2/maxwin/BulkDock/SCRATCH/511015/C34671-P54

>  <fragmenstein_runtime>  (154) 
9.082685947418213

>  <fragmenstein_outcome>  (154) 
too moved

>  <fragmenstein_mode>  (154) 
expansion

>  <fragmenstein_error>  (154) 


$$$$
C34672-P82
     RDKit          3D

 33 34  0  0  0  0  0  0  0  0999 V2000
  -13.8947  -22.5754   31.4217 C   0  0  0  0  0  0  0  0  0  0  0  0
  -12.8980  -23.4977   30.6789 C   0  0  0  0  0  0  0  0  0  0  0  0
  -11.9065  -24.0348   31.7070 C   0  0  0  0  0  0  0  0  0  0  0  0
  -10.6286  -24.3793   31.3351 C   0  0  0  0  0  0  0  0  0  0  0  0
   -9.7625  -25.0713   32.1585 C   0  0  0  0  0  0  0  0  0  0  0  0
  -10.0840  -25.4217   33.3898 N   0  0  0  0  0  0  0  0  0  0  0  0
  -11.3132  -25.0583   33.7691 C   0  0  0  0  0  0  0  0  0  0  0  0
  -12.2468  -24.3794   33.0054 C   0  0  0  0  0  0  0  0  0  0  0  0
  -12.3497  -22.8046   29.4346 N   0  0  0  0  0  0  0  0  0  0  0  0
  -11.6400  -21.5745   29.6899 C   0  0  0  0  0  0  0  0  0  0  0  0
  -12.2360  -23.3492   27.7809 S   0  0  0  0  0  0  0  0  0  0  0  0
  -11.3707  -22.4018   27.1376 O   0  0  0  0  0  0  0  0  0  0  0  0
  -13.3984  -23.7829   27.0604 O   0  0  0  0  0  0  0  0  0  0  0  0
  -11.3967  -24.8026   27.9813 C   0  0  0  0  0  0  0  0  0  0  0  0
  -12.0518  -25.9169   28.3890 C   0  0  0  0  0  0  0  0  0  0  0  0
  -11.4625  -26.8462   29.1377 N   0  0  0  0  0  0  0  0  0  0  0  0
  -10.1763  -26.5982   29.4063 C   0  0  0  0  0  0  0  0  0  0  0  0
   -9.4209  -25.6304   28.8526 N   0  0  0  0  0  0  0  0  0  0  0  0
  -10.0719  -24.7420   28.1080 C   0  0  0  0  0  0  0  0  0  0  0  0
  -14.5611  -22.0172   30.7683 H   0  0  0  0  0  0  0  0  0  0  0  0
  -13.3724  -21.8402   32.0446 H   0  0  0  0  0  0  0  0  0  0  0  0
  -14.5474  -23.1495   32.0878 H   0  0  0  0  0  0  0  0  0  0  0  0
  -13.3765  -24.4106   30.3463 H   0  0  0  0  0  0  0  0  0  0  0  0
  -10.2997  -24.1204   30.3594 H   0  0  0  0  0  0  0  0  0  0  0  0
   -8.7778  -25.3783   31.8328 H   0  0  0  0  0  0  0  0  0  0  0  0
  -11.5225  -25.3823   34.7640 H   0  0  0  0  0  0  0  0  0  0  0  0
  -13.2266  -24.2045   33.4329 H   0  0  0  0  0  0  0  0  0  0  0  0
  -10.6640  -21.5830   29.2251 H   0  0  0  0  0  0  0  0  0  0  0  0
  -11.5030  -21.3709   30.7524 H   0  0  0  0  0  0  0  0  0  0  0  0
  -12.2163  -20.7839   29.2270 H   0  0  0  0  0  0  0  0  0  0  0  0
  -13.1075  -26.0225   28.2087 H   0  0  0  0  0  0  0  0  0  0  0  0
   -9.7031  -27.2312   30.1508 H   0  0  0  0  0  0  0  0  0  0  0  0
   -9.5450  -23.8681   27.7627 H   0  0  0  0  0  0  0  0  0  0  0  0
  1  2  1  0
  2  3  1  0
  3  4  2  0
  4  5  1  0
  5  6  2  0
  6  7  1  0
  7  8  2  0
  2  9  1  0
  9 10  1  0
  9 11  1  0
 11 12  2  0
 11 13  2  0
 11 14  1  0
 14 15  2  0
 15 16  1  0
 16 17  2  0
 17 18  1  0
 18 19  2  0
  8  3  1  0
 19 14  1  0
  1 20  1  0
  1 21  1  0
  1 22  1  0
  2 23  1  0
  4 24  1  0
  5 25  1  0
  7 26  1  0
  8 27  1  0
 10 28  1  0
 10 29  1  0
 10 30  1  0
 15 31  1  0
 17 32  1  0
 19 33  1  0
M  END
>  <Energy>  (155) 
-8.9068034015999302

>  <compound_id>  (155) 
34672

>  <target_id>  (155) 
1

>  <reference_id>  (155) 
82

>  <inspiration_ids>  (155) 
[82, 54]

>  <energy_score>  (155) 
20.761582258966698

>  <distance_score>  (155) 
2.353099628292901

>  <path>  (155) 
/opt/xchem-fragalysis-2/maxwin/BulkDock/SCRATCH/511015/C34672-P82/C34672-P82.minimised.mol

>  <scratch_subdir>  (155) 
/opt/xchem-fragalysis-2/maxwin/BulkDock/SCRATCH/511015/C34672-P82

>  <fragmenstein_runtime>  (155) 
2.5210037231445312

>  <fragmenstein_outcome>  (155) 
too moved

>  <fragmenstein_mode>  (155) 
expansion

>  <fragmenstein_error>  (155) 


$$$$
C34672-P54
     RDKit          3D

 33 34  0  0  0  0  0  0  0  0999 V2000
  -12.0510  -21.6773   29.0230 C   0  0  0  0  0  0  0  0  0  0  0  0
  -12.6079  -23.0837   29.2851 C   0  0  0  0  0  0  0  0  0  0  0  0
  -11.7476  -23.8903   30.2470 C   0  0  0  0  0  0  0  0  0  0  0  0
  -11.8843  -25.2803   30.2828 C   0  0  0  0  0  0  0  0  0  0  0  0
  -11.1775  -25.9868   31.2164 C   0  0  0  0  0  0  0  0  0  0  0  0
  -10.2809  -25.4316   32.0604 N   0  0  0  0  0  0  0  0  0  0  0  0
  -10.1132  -24.0986   32.0005 C   0  0  0  0  0  0  0  0  0  0  0  0
  -10.8660  -23.2941   31.1684 C   0  0  0  0  0  0  0  0  0  0  0  0
  -13.1533  -23.9199   28.1215 N   0  0  0  0  0  0  0  0  0  0  0  0
  -14.4652  -24.5895   28.2396 C   0  0  0  0  0  0  0  0  0  0  0  0
  -12.4969  -24.0474   26.5778 S   0  0  0  0  0  0  0  0  0  0  0  0
  -12.7703  -22.8529   25.8263 O   0  0  0  0  0  0  0  0  0  0  0  0
  -12.8499  -25.3564   26.0581 O   0  0  0  0  0  0  0  0  0  0  0  0
  -10.8374  -24.0958   26.9786 C   0  0  0  0  0  0  0  0  0  0  0  0
  -10.3181  -25.2436   27.4752 C   0  0  0  0  0  0  0  0  0  0  0  0
   -9.3082  -25.1964   28.3392 N   0  0  0  0  0  0  0  0  0  0  0  0
   -8.8646  -23.9962   28.7266 C   0  0  0  0  0  0  0  0  0  0  0  0
   -9.2530  -22.8343   28.1996 N   0  0  0  0  0  0  0  0  0  0  0  0
  -10.2125  -22.9237   27.2685 C   0  0  0  0  0  0  0  0  0  0  0  0
  -12.2716  -21.2948   28.0328 H   0  0  0  0  0  0  0  0  0  0  0  0
  -12.4720  -20.9863   29.7630 H   0  0  0  0  0  0  0  0  0  0  0  0
  -10.9817  -21.5572   29.1895 H   0  0  0  0  0  0  0  0  0  0  0  0
  -13.5067  -22.7920   29.8030 H   0  0  0  0  0  0  0  0  0  0  0  0
  -12.5555  -25.8237   29.6313 H   0  0  0  0  0  0  0  0  0  0  0  0
  -11.3364  -27.0568   31.3120 H   0  0  0  0  0  0  0  0  0  0  0  0
   -9.3877  -23.6796   32.6911 H   0  0  0  0  0  0  0  0  0  0  0  0
  -10.7380  -22.2190   31.2411 H   0  0  0  0  0  0  0  0  0  0  0  0
  -14.8936  -24.5278   29.2323 H   0  0  0  0  0  0  0  0  0  0  0  0
  -15.1709  -24.1702   27.5174 H   0  0  0  0  0  0  0  0  0  0  0  0
  -14.3605  -25.6607   28.0369 H   0  0  0  0  0  0  0  0  0  0  0  0
  -10.7542  -26.2217   27.3076 H   0  0  0  0  0  0  0  0  0  0  0  0
   -8.1069  -23.9725   29.4964 H   0  0  0  0  0  0  0  0  0  0  0  0
  -10.5908  -21.9824   26.8918 H   0  0  0  0  0  0  0  0  0  0  0  0
  1  2  1  0
  2  3  1  0
  3  4  2  0
  4  5  1  0
  5  6  2  0
  6  7  1  0
  7  8  2  0
  2  9  1  0
  9 10  1  0
  9 11  1  0
 11 12  2  0
 11 13  2  0
 11 14  1  0
 14 15  2  0
 15 16  1  0
 16 17  2  0
 17 18  1  0
 18 19  2  0
  8  3  1  0
 19 14  1  0
  1 20  1  0
  1 21  1  0
  1 22  1  0
  2 23  1  0
  4 24  1  0
  5 25  1  0
  7 26  1  0
  8 27  1  0
 10 28  1  0
 10 29  1  0
 10 30  1  0
 15 31  1  0
 17 32  1  0
 19 33  1  0
M  END
>  <Energy>  (156) 
-15.700820651272691

>  <compound_id>  (156) 
34672

>  <target_id>  (156) 
1

>  <reference_id>  (156) 
54

>  <inspiration_ids>  (156) 
[82, 54]

>  <energy_score>  (156) 
13.967565009293232

>  <distance_score>  (156) 
1.8334461038588492

>  <path>  (156) 
/opt/xchem-fragalysis-2/maxwin/BulkDock/SCRATCH/511015/C34672-P54/C34672-P54.minimised.mol

>  <scratch_subdir>  (156) 
/opt/xchem-fragalysis-2/maxwin/BulkDock/SCRATCH/511015/C34672-P54

>  <fragmenstein_runtime>  (156) 
2.2097713947296143

>  <fragmenstein_outcome>  (156) 
too moved

>  <fragmenstein_mode>  (156) 
expansion

>  <fragmenstein_error>  (156) 


$$$$
C34673-P82
     RDKit          3D

 24 25  0  0  0  0  0  0  0  0999 V2000
  -12.3353  -27.1939   27.1875 C   0  0  0  0  0  0  0  0  0  0  0  0
  -11.4468  -26.1558   26.7184 N   0  0  0  0  0  0  0  0  0  0  0  0
  -11.5113  -24.9988   27.5147 C   0  0  0  0  0  0  0  0  0  0  0  0
  -11.6618  -23.7710   26.8980 C   0  0  0  0  0  0  0  0  0  0  0  0
  -11.6861  -22.6419   27.6838 C   0  0  0  0  0  0  0  0  0  0  0  0
  -11.6020  -22.6436   29.0201 N   0  0  0  0  0  0  0  0  0  0  0  0
  -11.4792  -23.8502   29.6200 C   0  0  0  0  0  0  0  0  0  0  0  0
  -11.4773  -23.8126   31.0686 C   0  0  0  0  0  0  0  0  0  0  0  0
  -12.1765  -22.8306   31.7521 C   0  0  0  0  0  0  0  0  0  0  0  0
  -12.2806  -22.7596   33.0836 N   0  0  0  0  0  0  0  0  0  0  0  0
  -11.6840  -23.7674   33.7261 C   0  0  0  0  0  0  0  0  0  0  0  0
  -10.8960  -24.7222   33.2045 N   0  0  0  0  0  0  0  0  0  0  0  0
  -10.8087  -24.7185   31.8699 C   0  0  0  0  0  0  0  0  0  0  0  0
  -11.3864  -25.0342   28.9005 C   0  0  0  0  0  0  0  0  0  0  0  0
  -12.2863  -28.0384   26.4914 H   0  0  0  0  0  0  0  0  0  0  0  0
  -13.3749  -26.8507   27.2010 H   0  0  0  0  0  0  0  0  0  0  0  0
  -12.0593  -27.5857   28.1703 H   0  0  0  0  0  0  0  0  0  0  0  0
  -11.6435  -25.9370   25.7438 H   0  0  0  0  0  0  0  0  0  0  0  0
  -11.7604  -23.6747   25.8233 H   0  0  0  0  0  0  0  0  0  0  0  0
  -11.7643  -21.6706   27.2231 H   0  0  0  0  0  0  0  0  0  0  0  0
  -12.7296  -22.0693   31.2125 H   0  0  0  0  0  0  0  0  0  0  0  0
  -11.8232  -23.7997   34.7920 H   0  0  0  0  0  0  0  0  0  0  0  0
  -10.1810  -25.5071   31.4639 H   0  0  0  0  0  0  0  0  0  0  0  0
  -11.2547  -25.9774   29.4165 H   0  0  0  0  0  0  0  0  0  0  0  0
  1  2  1  0
  2  3  1  0
  3  4  2  0
  4  5  1  0
  5  6  2  0
  6  7  1  0
  7  8  1  0
  8  9  2  0
  9 10  1  0
 10 11  2  0
 11 12  1  0
 12 13  2  0
  7 14  2  0
 14  3  1  0
 13  8  1  0
  1 15  1  0
  1 16  1  0
  1 17  1  0
  2 18  1  0
  4 19  1  0
  5 20  1  0
  9 21  1  0
 11 22  1  0
 13 23  1  0
 14 24  1  0
M  END
>  <Energy>  (157) 
15.499970563404297

>  <compound_id>  (157) 
34673

>  <target_id>  (157) 
1

>  <reference_id>  (157) 
82

>  <inspiration_ids>  (157) 
[82, 54]

>  <energy_score>  (157) 
-15.367584932810967

>  <distance_score>  (157) 
1.7037367101712055

>  <path>  (157) 
/opt/xchem-fragalysis-2/maxwin/BulkDock/SCRATCH/511015/C34673-P82/C34673-P82.minimised.mol

>  <scratch_subdir>  (157) 
/opt/xchem-fragalysis-2/maxwin/BulkDock/SCRATCH/511015/C34673-P82

>  <fragmenstein_runtime>  (157) 
1.8954980373382568

>  <fragmenstein_outcome>  (157) 
too moved

>  <fragmenstein_mode>  (157) 
expansion

>  <fragmenstein_error>  (157) 


$$$$
C34673-P54
     RDKit          3D

 24 25  0  0  0  0  0  0  0  0999 V2000
  -12.0875  -26.4071   28.0181 C   0  0  0  0  0  0  0  0  0  0  0  0
  -11.6235  -25.2423   27.2974 N   0  0  0  0  0  0  0  0  0  0  0  0
  -11.3882  -24.0863   28.0570 C   0  0  0  0  0  0  0  0  0  0  0  0
  -11.4415  -22.8563   27.4106 C   0  0  0  0  0  0  0  0  0  0  0  0
  -11.1843  -21.7127   28.1365 C   0  0  0  0  0  0  0  0  0  0  0  0
  -10.8593  -21.7155   29.4407 N   0  0  0  0  0  0  0  0  0  0  0  0
  -10.7242  -22.9090   30.0600 C   0  0  0  0  0  0  0  0  0  0  0  0
  -10.2789  -22.8380   31.4508 C   0  0  0  0  0  0  0  0  0  0  0  0
  -10.5727  -21.7630   32.2722 C   0  0  0  0  0  0  0  0  0  0  0  0
  -10.1517  -21.6409   33.5486 N   0  0  0  0  0  0  0  0  0  0  0  0
   -9.4251  -22.6558   34.0196 C   0  0  0  0  0  0  0  0  0  0  0  0
   -9.0963  -23.7723   33.3574 N   0  0  0  0  0  0  0  0  0  0  0  0
   -9.5070  -23.8078   32.0701 C   0  0  0  0  0  0  0  0  0  0  0  0
  -10.9761  -24.1069   29.3928 C   0  0  0  0  0  0  0  0  0  0  0  0
  -12.3783  -27.1790   27.2977 H   0  0  0  0  0  0  0  0  0  0  0  0
  -12.9662  -26.1827   28.6329 H   0  0  0  0  0  0  0  0  0  0  0  0
  -11.2990  -26.8389   28.6423 H   0  0  0  0  0  0  0  0  0  0  0  0
  -12.2216  -25.0296   26.5008 H   0  0  0  0  0  0  0  0  0  0  0  0
  -11.6927  -22.7686   26.3589 H   0  0  0  0  0  0  0  0  0  0  0  0
  -11.2248  -20.7315   27.6727 H   0  0  0  0  0  0  0  0  0  0  0  0
  -11.1738  -20.9282   31.9164 H   0  0  0  0  0  0  0  0  0  0  0  0
   -9.0858  -22.5671   35.0406 H   0  0  0  0  0  0  0  0  0  0  0  0
   -9.1625  -24.6821   31.5284 H   0  0  0  0  0  0  0  0  0  0  0  0
  -10.8592  -25.0459   29.9174 H   0  0  0  0  0  0  0  0  0  0  0  0
  1  2  1  0
  2  3  1  0
  3  4  2  0
  4  5  1  0
  5  6  2  0
  6  7  1  0
  7  8  1  0
  8  9  2  0
  9 10  1  0
 10 11  2  0
 11 12  1  0
 12 13  2  0
  7 14  2  0
 14  3  1  0
 13  8  1  0
  1 15  1  0
  1 16  1  0
  1 17  1  0
  2 18  1  0
  4 19  1  0
  5 20  1  0
  9 21  1  0
 11 22  1  0
 13 23  1  0
 14 24  1  0
M  END
>  <Energy>  (158) 
12.234837088445328

>  <compound_id>  (158) 
34673

>  <target_id>  (158) 
1

>  <reference_id>  (158) 
54

>  <inspiration_ids>  (158) 
[82, 54]

>  <energy_score>  (158) 
-18.63271840776872

>  <distance_score>  (158) 
0.9927345004489343

>  <path>  (158) 
/opt/xchem-fragalysis-2/maxwin/BulkDock/SCRATCH/511015/C34673-P54/C34673-P54.minimised.mol

>  <scratch_subdir>  (158) 
/opt/xchem-fragalysis-2/maxwin/BulkDock/SCRATCH/511015/C34673-P54

>  <fragmenstein_runtime>  (158) 
1.6078081130981445

>  <fragmenstein_outcome>  (158) 
acceptable

>  <fragmenstein_mode>  (158) 
expansion

>  <fragmenstein_error>  (158) 


$$$$
C34674-P82
     RDKit          3D

 24 25  0  0  0  0  0  0  0  0999 V2000
  -11.8297  -24.7751   31.9317 C   0  0  0  0  0  0  0  0  0  0  0  0
  -12.2030  -24.2579   30.6969 C   0  0  0  0  0  0  0  0  0  0  0  0
  -12.0558  -22.9187   30.4021 C   0  0  0  0  0  0  0  0  0  0  0  0
  -12.1504  -22.3254   29.1351 N   0  0  0  0  0  0  0  0  0  0  0  0
  -12.1972  -22.9687   27.7749 C   0  0  0  0  0  0  0  0  0  0  0  0
  -11.5473  -24.2903   27.7245 C   0  0  0  0  0  0  0  0  0  0  0  0
  -10.2315  -24.3171   28.0310 C   0  0  0  0  0  0  0  0  0  0  0  0
   -9.6523  -25.2927   28.7224 N   0  0  0  0  0  0  0  0  0  0  0  0
  -10.4375  -26.3324   28.9730 C   0  0  0  0  0  0  0  0  0  0  0  0
  -11.6434  -26.5537   28.4216 N   0  0  0  0  0  0  0  0  0  0  0  0
  -12.1853  -25.4979   27.7875 C   0  0  0  0  0  0  0  0  0  0  0  0
  -11.8814  -22.1449   31.5443 C   0  0  0  0  0  0  0  0  0  0  0  0
  -11.7371  -22.7265   32.8018 C   0  0  0  0  0  0  0  0  0  0  0  0
  -11.5818  -24.0333   33.0070 N   0  0  0  0  0  0  0  0  0  0  0  0
  -11.7552  -25.8350   32.0960 H   0  0  0  0  0  0  0  0  0  0  0  0
  -12.6079  -24.9583   29.9992 H   0  0  0  0  0  0  0  0  0  0  0  0
  -11.6799  -21.4240   29.0863 H   0  0  0  0  0  0  0  0  0  0  0  0
  -13.2089  -23.0513   27.4015 H   0  0  0  0  0  0  0  0  0  0  0  0
  -11.6953  -22.2888   27.0796 H   0  0  0  0  0  0  0  0  0  0  0  0
   -9.6369  -23.4454   27.8380 H   0  0  0  0  0  0  0  0  0  0  0  0
  -10.0680  -27.0569   29.6871 H   0  0  0  0  0  0  0  0  0  0  0  0
  -13.2244  -25.6086   27.5051 H   0  0  0  0  0  0  0  0  0  0  0  0
  -11.8128  -21.0763   31.4907 H   0  0  0  0  0  0  0  0  0  0  0  0
  -11.7250  -22.1077   33.6903 H   0  0  0  0  0  0  0  0  0  0  0  0
  1  2  2  0
  2  3  1  0
  3  4  1  0
  4  5  1  0
  5  6  1  0
  6  7  2  0
  7  8  1  0
  8  9  2  0
  9 10  1  0
 10 11  2  0
  3 12  2  0
 12 13  1  0
 13 14  2  0
 14  1  1  0
 11  6  1  0
  1 15  1  0
  2 16  1  0
  4 17  1  0
  5 18  1  0
  5 19  1  0
  7 20  1  0
  9 21  1  0
 11 22  1  0
 12 23  1  0
 13 24  1  0
M  END
>  <Energy>  (159) 
37.37595561288633

>  <compound_id>  (159) 
34674

>  <target_id>  (159) 
1

>  <reference_id>  (159) 
82

>  <inspiration_ids>  (159) 
[82, 54]

>  <energy_score>  (159) 
16.772429005167865

>  <distance_score>  (159) 
2.3482810756631443

>  <path>  (159) 
/opt/xchem-fragalysis-2/maxwin/BulkDock/SCRATCH/511015/C34674-P82/C34674-P82.minimised.mol

>  <scratch_subdir>  (159) 
/opt/xchem-fragalysis-2/maxwin/BulkDock/SCRATCH/511015/C34674-P82

>  <fragmenstein_runtime>  (159) 
2.199713945388794

>  <fragmenstein_outcome>  (159) 
too moved

>  <fragmenstein_mode>  (159) 
expansion

>  <fragmenstein_error>  (159) 


$$$$
C34674-P54
     RDKit          3D

 24 25  0  0  0  0  0  0  0  0999 V2000
  -12.2778  -27.1636   30.6603 C   0  0  0  0  0  0  0  0  0  0  0  0
  -12.9263  -26.4884   29.6421 C   0  0  0  0  0  0  0  0  0  0  0  0
  -12.6994  -25.1296   29.5031 C   0  0  0  0  0  0  0  0  0  0  0  0
  -13.3584  -24.4026   28.4771 N   0  0  0  0  0  0  0  0  0  0  0  0
  -12.6663  -24.3695   27.1561 C   0  0  0  0  0  0  0  0  0  0  0  0
  -11.2647  -23.9047   27.3674 C   0  0  0  0  0  0  0  0  0  0  0  0
  -10.9920  -22.5990   27.7229 C   0  0  0  0  0  0  0  0  0  0  0  0
   -9.9435  -22.2706   28.4923 N   0  0  0  0  0  0  0  0  0  0  0  0
   -9.1354  -23.2823   28.8433 C   0  0  0  0  0  0  0  0  0  0  0  0
   -9.2300  -24.5490   28.4261 N   0  0  0  0  0  0  0  0  0  0  0  0
  -10.2939  -24.8367   27.6703 C   0  0  0  0  0  0  0  0  0  0  0  0
  -11.7577  -24.5260   30.3518 C   0  0  0  0  0  0  0  0  0  0  0  0
  -11.0824  -25.3023   31.2665 C   0  0  0  0  0  0  0  0  0  0  0  0
  -11.3921  -26.5899   31.4957 N   0  0  0  0  0  0  0  0  0  0  0  0
  -12.4616  -28.2209   30.8340 H   0  0  0  0  0  0  0  0  0  0  0  0
  -13.6325  -27.0058   29.0028 H   0  0  0  0  0  0  0  0  0  0  0  0
  -13.4339  -23.4438   28.8092 H   0  0  0  0  0  0  0  0  0  0  0  0
  -12.7002  -25.3608   26.6886 H   0  0  0  0  0  0  0  0  0  0  0  0
  -13.2018  -23.6833   26.4903 H   0  0  0  0  0  0  0  0  0  0  0  0
  -11.6808  -21.7857   27.5137 H   0  0  0  0  0  0  0  0  0  0  0  0
   -8.3130  -23.0622   29.5132 H   0  0  0  0  0  0  0  0  0  0  0  0
  -10.4203  -25.8927   27.4500 H   0  0  0  0  0  0  0  0  0  0  0  0
  -11.5451  -23.4644   30.3080 H   0  0  0  0  0  0  0  0  0  0  0  0
  -10.2897  -24.8831   31.8798 H   0  0  0  0  0  0  0  0  0  0  0  0
  1  2  2  0
  2  3  1  0
  3  4  1  0
  4  5  1  0
  5  6  1  0
  6  7  2  0
  7  8  1  0
  8  9  2  0
  9 10  1  0
 10 11  2  0
  3 12  2  0
 12 13  1  0
 13 14  2  0
 14  1  1  0
 11  6  1  0
  1 15  1  0
  2 16  1  0
  4 17  1  0
  5 18  1  0
  5 19  1  0
  7 20  1  0
  9 21  1  0
 11 22  1  0
 12 23  1  0
 13 24  1  0
M  END
>  <Energy>  (160) 
20.171446822716419

>  <compound_id>  (160) 
34674

>  <target_id>  (160) 
1

>  <reference_id>  (160) 
54

>  <inspiration_ids>  (160) 
[82, 54]

>  <energy_score>  (160) 
-0.43207978500254285

>  <distance_score>  (160) 
1.9805349400318935

>  <path>  (160) 
/opt/xchem-fragalysis-2/maxwin/BulkDock/SCRATCH/511015/C34674-P54/C34674-P54.minimised.mol

>  <scratch_subdir>  (160) 
/opt/xchem-fragalysis-2/maxwin/BulkDock/SCRATCH/511015/C34674-P54

>  <fragmenstein_runtime>  (160) 
1.5010528564453125

>  <fragmenstein_outcome>  (160) 
too moved

>  <fragmenstein_mode>  (160) 
expansion

>  <fragmenstein_error>  (160) 


$$$$
C34675-P82
     RDKit          3D

 25 26  0  0  0  0  0  0  0  0999 V2000
  -14.1110  -22.1502   31.7699 N   0  0  0  0  0  0  0  0  0  0  0  0
  -13.3602  -23.0281   31.9081 C   0  0  0  0  0  0  0  0  0  0  0  0
  -12.3583  -24.0152   32.1826 C   0  0  0  0  0  0  0  0  0  0  0  0
  -11.9923  -24.2226   33.4893 C   0  0  0  0  0  0  0  0  0  0  0  0
  -10.9410  -24.9749   33.8688 N   0  0  0  0  0  0  0  0  0  0  0  0
  -10.1669  -25.4597   32.8992 C   0  0  0  0  0  0  0  0  0  0  0  0
  -10.5113  -25.4219   31.5776 C   0  0  0  0  0  0  0  0  0  0  0  0
  -11.6711  -24.7430   31.2065 C   0  0  0  0  0  0  0  0  0  0  0  0
  -12.0669  -24.6793   29.8903 N   0  0  0  0  0  0  0  0  0  0  0  0
  -11.4479  -25.4798   28.8651 C   0  0  0  0  0  0  0  0  0  0  0  0
  -11.7466  -24.7600   27.6238 C   0  0  0  0  0  0  0  0  0  0  0  0
  -12.2921  -25.3519   26.5203 C   0  0  0  0  0  0  0  0  0  0  0  0
  -12.6673  -24.6518   25.4553 N   0  0  0  0  0  0  0  0  0  0  0  0
  -12.4568  -23.3298   25.5220 C   0  0  0  0  0  0  0  0  0  0  0  0
  -11.9279  -22.6651   26.5548 N   0  0  0  0  0  0  0  0  0  0  0  0
  -11.5633  -23.3971   27.5858 C   0  0  0  0  0  0  0  0  0  0  0  0
  -12.5272  -23.7513   34.2997 H   0  0  0  0  0  0  0  0  0  0  0  0
   -9.2156  -25.8587   33.2150 H   0  0  0  0  0  0  0  0  0  0  0  0
   -9.8508  -25.9224   30.8844 H   0  0  0  0  0  0  0  0  0  0  0  0
  -13.0799  -24.5252   29.7670 H   0  0  0  0  0  0  0  0  0  0  0  0
  -11.8534  -26.4968   28.8700 H   0  0  0  0  0  0  0  0  0  0  0  0
  -10.3570  -25.5387   28.9421 H   0  0  0  0  0  0  0  0  0  0  0  0
  -12.4782  -26.4189   26.4684 H   0  0  0  0  0  0  0  0  0  0  0  0
  -12.7322  -22.7458   24.6491 H   0  0  0  0  0  0  0  0  0  0  0  0
  -11.1518  -22.8383   28.4210 H   0  0  0  0  0  0  0  0  0  0  0  0
  1  2  3  0
  2  3  1  0
  3  4  2  0
  4  5  1  0
  5  6  2  0
  6  7  1  0
  7  8  2  0
  8  9  1  0
  9 10  1  0
 10 11  1  0
 11 12  2  0
 12 13  1  0
 13 14  2  0
 14 15  1  0
 15 16  2  0
  8  3  1  0
 16 11  1  0
  4 17  1  0
  6 18  1  0
  7 19  1  0
  9 20  1  0
 10 21  1  0
 10 22  1  0
 12 23  1  0
 14 24  1  0
 16 25  1  0
M  END
>  <Energy>  (161) 
37.717891949261606

>  <compound_id>  (161) 
34675

>  <target_id>  (161) 
1

>  <reference_id>  (161) 
82

>  <inspiration_ids>  (161) 
[82, 54]

>  <energy_score>  (161) 
-3.4180494797054592

>  <distance_score>  (161) 
1.5118322084230489

>  <path>  (161) 
/opt/xchem-fragalysis-2/maxwin/BulkDock/SCRATCH/511015/C34675-P82/C34675-P82.minimised.mol

>  <scratch_subdir>  (161) 
/opt/xchem-fragalysis-2/maxwin/BulkDock/SCRATCH/511015/C34675-P82

>  <fragmenstein_runtime>  (161) 
2.429635524749756

>  <fragmenstein_outcome>  (161) 
too moved

>  <fragmenstein_mode>  (161) 
expansion

>  <fragmenstein_error>  (161) 


$$$$
C34675-P54
     RDKit          3D

 25 26  0  0  0  0  0  0  0  0999 V2000
  -12.3958  -20.8725   30.3002 N   0  0  0  0  0  0  0  0  0  0  0  0
  -11.8342  -21.7542   30.7987 C   0  0  0  0  0  0  0  0  0  0  0  0
  -11.0809  -22.8163   31.3648 C   0  0  0  0  0  0  0  0  0  0  0  0
  -10.2380  -22.5239   32.4317 C   0  0  0  0  0  0  0  0  0  0  0  0
   -9.4379  -23.4279   33.0372 N   0  0  0  0  0  0  0  0  0  0  0  0
   -9.4774  -24.6728   32.5432 C   0  0  0  0  0  0  0  0  0  0  0  0
  -10.3300  -25.0533   31.5166 C   0  0  0  0  0  0  0  0  0  0  0  0
  -11.1559  -24.1326   30.8999 C   0  0  0  0  0  0  0  0  0  0  0  0
  -12.1298  -24.6078   30.0045 N   0  0  0  0  0  0  0  0  0  0  0  0
  -11.7127  -25.4560   28.8906 C   0  0  0  0  0  0  0  0  0  0  0  0
  -11.6766  -24.5744   27.7081 C   0  0  0  0  0  0  0  0  0  0  0  0
  -12.7564  -24.4602   26.8647 C   0  0  0  0  0  0  0  0  0  0  0  0
  -12.8770  -23.4699   25.9840 N   0  0  0  0  0  0  0  0  0  0  0  0
  -11.8770  -22.5776   25.9713 C   0  0  0  0  0  0  0  0  0  0  0  0
  -10.7683  -22.6208   26.7250 N   0  0  0  0  0  0  0  0  0  0  0  0
  -10.6795  -23.6363   27.5747 C   0  0  0  0  0  0  0  0  0  0  0  0
  -10.1782  -21.5183   32.8436 H   0  0  0  0  0  0  0  0  0  0  0  0
   -8.8369  -25.3815   33.0561 H   0  0  0  0  0  0  0  0  0  0  0  0
  -10.4771  -26.0847   31.2579 H   0  0  0  0  0  0  0  0  0  0  0  0
  -12.7317  -23.8463   29.6822 H   0  0  0  0  0  0  0  0  0  0  0  0
  -12.4501  -26.2563   28.7600 H   0  0  0  0  0  0  0  0  0  0  0  0
  -10.7466  -25.9436   29.0324 H   0  0  0  0  0  0  0  0  0  0  0  0
  -13.6075  -25.1328   26.9188 H   0  0  0  0  0  0  0  0  0  0  0  0
  -11.9681  -21.7659   25.2587 H   0  0  0  0  0  0  0  0  0  0  0  0
   -9.8015  -23.6283   28.2138 H   0  0  0  0  0  0  0  0  0  0  0  0
  1  2  3  0
  2  3  1  0
  3  4  2  0
  4  5  1  0
  5  6  2  0
  6  7  1  0
  7  8  2  0
  8  9  1  0
  9 10  1  0
 10 11  1  0
 11 12  2  0
 12 13  1  0
 13 14  2  0
 14 15  1  0
 15 16  2  0
  8  3  1  0
 16 11  1  0
  4 17  1  0
  6 18  1  0
  7 19  1  0
  9 20  1  0
 10 21  1  0
 10 22  1  0
 12 23  1  0
 14 24  1  0
 16 25  1  0
M  END
>  <Energy>  (162) 
36.601388653759464

>  <compound_id>  (162) 
34675

>  <target_id>  (162) 
1

>  <reference_id>  (162) 
54

>  <inspiration_ids>  (162) 
[82, 54]

>  <energy_score>  (162) 
-4.534552775208567

>  <distance_score>  (162) 
1.6320380040434763

>  <path>  (162) 
/opt/xchem-fragalysis-2/maxwin/BulkDock/SCRATCH/511015/C34675-P54/C34675-P54.minimised.mol

>  <scratch_subdir>  (162) 
/opt/xchem-fragalysis-2/maxwin/BulkDock/SCRATCH/511015/C34675-P54

>  <fragmenstein_runtime>  (162) 
2.7082748413085938

>  <fragmenstein_outcome>  (162) 
too moved

>  <fragmenstein_mode>  (162) 
expansion

>  <fragmenstein_error>  (162) 


$$$$
C34676-P82
     RDKit          3D

 34 35  0  0  0  0  0  0  0  0999 V2000
  -12.6084  -25.6228   25.4701 F   0  0  0  0  0  0  0  0  0  0  0  0
  -12.7986  -26.7060   26.2565 C   0  0  0  0  0  0  0  0  0  0  0  0
  -13.7823  -26.4322   27.1537 F   0  0  0  0  0  0  0  0  0  0  0  0
  -11.5155  -27.1954   26.9044 C   0  0  0  0  0  0  0  0  0  0  0  0
  -11.8484  -28.4134   27.4584 F   0  0  0  0  0  0  0  0  0  0  0  0
  -10.6578  -27.5088   25.8740 F   0  0  0  0  0  0  0  0  0  0  0  0
  -10.6912  -26.3710   27.9450 C   0  0  0  0  0  0  0  0  0  0  0  0
  -10.9733  -26.7987   29.2835 O   0  0  0  0  0  0  0  0  0  0  0  0
  -10.5271  -26.1376   30.3962 C   0  0  0  0  0  0  0  0  0  0  0  0
  -10.4916  -24.7787   30.5250 C   0  0  0  0  0  0  0  0  0  0  0  0
  -10.9342  -24.1854   31.7338 C   0  0  0  0  0  0  0  0  0  0  0  0
  -11.5719  -22.9220   31.8224 N   0  0  0  0  0  0  0  0  0  0  0  0
  -12.7543  -22.9315   30.9645 C   0  0  0  0  0  0  0  0  0  0  0  0
  -12.3760  -22.9658   29.5262 C   0  0  0  0  0  0  0  0  0  0  0  0
  -11.7763  -21.9554   28.8583 C   0  0  0  0  0  0  0  0  0  0  0  0
  -11.5622  -21.9810   27.5384 N   0  0  0  0  0  0  0  0  0  0  0  0
  -12.0010  -23.0357   26.8592 C   0  0  0  0  0  0  0  0  0  0  0  0
  -12.4734  -24.1281   27.4237 N   0  0  0  0  0  0  0  0  0  0  0  0
  -12.5922  -24.0834   28.7535 C   0  0  0  0  0  0  0  0  0  0  0  0
  -10.9675  -24.9363   32.8682 C   0  0  0  0  0  0  0  0  0  0  0  0
  -10.6679  -26.2453   32.6882 C   0  0  0  0  0  0  0  0  0  0  0  0
  -10.5377  -26.8757   31.4911 N   0  0  0  0  0  0  0  0  0  0  0  0
  -13.1878  -27.4944   25.6049 H   0  0  0  0  0  0  0  0  0  0  0  0
   -9.6272  -26.5678   27.7823 H   0  0  0  0  0  0  0  0  0  0  0  0
  -10.7042  -25.3062   27.7779 H   0  0  0  0  0  0  0  0  0  0  0  0
  -10.3634  -24.2090   29.6268 H   0  0  0  0  0  0  0  0  0  0  0  0
  -10.9844  -22.1380   31.5934 H   0  0  0  0  0  0  0  0  0  0  0  0
  -13.3370  -22.0281   31.1667 H   0  0  0  0  0  0  0  0  0  0  0  0
  -13.4130  -23.7629   31.2412 H   0  0  0  0  0  0  0  0  0  0  0  0
  -11.4552  -21.0693   29.3768 H   0  0  0  0  0  0  0  0  0  0  0  0
  -11.9781  -23.0085   25.7775 H   0  0  0  0  0  0  0  0  0  0  0  0
  -12.9787  -24.9937   29.2078 H   0  0  0  0  0  0  0  0  0  0  0  0
  -11.3027  -24.5540   33.8216 H   0  0  0  0  0  0  0  0  0  0  0  0
  -10.6434  -26.8860   33.5532 H   0  0  0  0  0  0  0  0  0  0  0  0
  1  2  1  0
  2  3  1  0
  2  4  1  0
  4  5  1  0
  4  6  1  0
  4  7  1  0
  7  8  1  0
  8  9  1  0
  9 10  2  0
 10 11  1  0
 11 12  1  0
 12 13  1  0
 13 14  1  0
 14 15  2  0
 15 16  1  0
 16 17  2  0
 17 18  1  0
 18 19  2  0
 11 20  2  0
 20 21  1  0
 21 22  2  0
 22  9  1  0
 19 14  1  0
  2 23  1  0
  7 24  1  0
  7 25  1  0
 10 26  1  0
 12 27  1  0
 13 28  1  0
 13 29  1  0
 15 30  1  0
 17 31  1  0
 19 32  1  0
 20 33  1  0
 21 34  1  0
M  END
>  <Energy>  (163) 
99.882968864964127

>  <compound_id>  (163) 
34676

>  <target_id>  (163) 
1

>  <reference_id>  (163) 
82

>  <inspiration_ids>  (163) 
[82, 54]

>  <energy_score>  (163) 
40.746673468380095

>  <distance_score>  (163) 
2.640176886992329

>  <path>  (163) 
/opt/xchem-fragalysis-2/maxwin/BulkDock/SCRATCH/511015/C34676-P82/C34676-P82.minimised.mol

>  <scratch_subdir>  (163) 
/opt/xchem-fragalysis-2/maxwin/BulkDock/SCRATCH/511015/C34676-P82

>  <fragmenstein_runtime>  (163) 
5.051816940307617

>  <fragmenstein_outcome>  (163) 
too moved

>  <fragmenstein_mode>  (163) 
expansion

>  <fragmenstein_error>  (163) 


$$$$
C34676-P54
     RDKit          3D

 34 35  0  0  0  0  0  0  0  0999 V2000
  -15.4688  -29.4876   29.4476 F   0  0  0  0  0  0  0  0  0  0  0  0
  -14.6614  -30.5795   29.4608 C   0  0  0  0  0  0  0  0  0  0  0  0
  -14.9810  -31.2886   30.5740 F   0  0  0  0  0  0  0  0  0  0  0  0
  -13.1913  -30.1912   29.4605 C   0  0  0  0  0  0  0  0  0  0  0  0
  -12.4284  -31.3140   29.3118 F   0  0  0  0  0  0  0  0  0  0  0  0
  -12.9245  -29.4362   28.3507 F   0  0  0  0  0  0  0  0  0  0  0  0
  -12.7438  -29.4440   30.7095 C   0  0  0  0  0  0  0  0  0  0  0  0
  -13.5482  -28.2934   30.9632 O   0  0  0  0  0  0  0  0  0  0  0  0
  -12.8693  -27.1439   30.6306 C   0  0  0  0  0  0  0  0  0  0  0  0
  -13.4300  -26.3722   29.6262 C   0  0  0  0  0  0  0  0  0  0  0  0
  -12.9149  -25.1110   29.3978 C   0  0  0  0  0  0  0  0  0  0  0  0
  -13.4495  -24.2986   28.3714 N   0  0  0  0  0  0  0  0  0  0  0  0
  -12.6677  -24.2048   27.1085 C   0  0  0  0  0  0  0  0  0  0  0  0
  -11.2736  -23.7896   27.4146 C   0  0  0  0  0  0  0  0  0  0  0  0
  -10.9920  -22.5111   27.8494 C   0  0  0  0  0  0  0  0  0  0  0  0
   -9.9285  -22.2331   28.6175 N   0  0  0  0  0  0  0  0  0  0  0  0
   -9.1317  -23.2698   28.9137 C   0  0  0  0  0  0  0  0  0  0  0  0
   -9.2508  -24.5176   28.4487 N   0  0  0  0  0  0  0  0  0  0  0  0
  -10.3158  -24.7496   27.6723 C   0  0  0  0  0  0  0  0  0  0  0  0
  -11.8582  -24.6983   30.2239 C   0  0  0  0  0  0  0  0  0  0  0  0
  -11.3063  -25.5724   31.1442 C   0  0  0  0  0  0  0  0  0  0  0  0
  -11.8203  -26.7885   31.3978 N   0  0  0  0  0  0  0  0  0  0  0  0
  -14.9044  -31.1899   28.5868 H   0  0  0  0  0  0  0  0  0  0  0  0
  -12.8363  -30.1014   31.5800 H   0  0  0  0  0  0  0  0  0  0  0  0
  -11.6869  -29.1841   30.6069 H   0  0  0  0  0  0  0  0  0  0  0  0
  -14.2843  -26.7476   29.0745 H   0  0  0  0  0  0  0  0  0  0  0  0
  -14.4074  -24.5792   28.1541 H   0  0  0  0  0  0  0  0  0  0  0  0
  -13.1449  -23.4706   26.4497 H   0  0  0  0  0  0  0  0  0  0  0  0
  -12.6944  -25.1669   26.5820 H   0  0  0  0  0  0  0  0  0  0  0  0
  -11.6809  -21.6855   27.6992 H   0  0  0  0  0  0  0  0  0  0  0  0
   -8.2997  -23.0864   29.5820 H   0  0  0  0  0  0  0  0  0  0  0  0
  -10.4477  -25.7885   27.3841 H   0  0  0  0  0  0  0  0  0  0  0  0
  -11.4882  -23.6814   30.1910 H   0  0  0  0  0  0  0  0  0  0  0  0
  -10.4498  -25.2738   31.7416 H   0  0  0  0  0  0  0  0  0  0  0  0
  1  2  1  0
  2  3  1  0
  2  4  1  0
  4  5  1  0
  4  6  1  0
  4  7  1  0
  7  8  1  0
  8  9  1  0
  9 10  2  0
 10 11  1  0
 11 12  1  0
 12 13  1  0
 13 14  1  0
 14 15  2  0
 15 16  1  0
 16 17  2  0
 17 18  1  0
 18 19  2  0
 11 20  2  0
 20 21  1  0
 21 22  2  0
 22  9  1  0
 19 14  1  0
  2 23  1  0
  7 24  1  0
  7 25  1  0
 10 26  1  0
 12 27  1  0
 13 28  1  0
 13 29  1  0
 15 30  1  0
 17 31  1  0
 19 32  1  0
 20 33  1  0
 21 34  1  0
M  END
>  <Energy>  (164) 
55.034772685805862

>  <compound_id>  (164) 
34676

>  <target_id>  (164) 
1

>  <reference_id>  (164) 
54

>  <inspiration_ids>  (164) 
[82, 54]

>  <energy_score>  (164) 
2.571076101645872

>  <distance_score>  (164) 
2.0894009041983748

>  <path>  (164) 
/opt/xchem-fragalysis-2/maxwin/BulkDock/SCRATCH/511015/C34676-P54/C34676-P54.minimised.mol

>  <scratch_subdir>  (164) 
/opt/xchem-fragalysis-2/maxwin/BulkDock/SCRATCH/511015/C34676-P54

>  <fragmenstein_runtime>  (164) 
2.51379132270813

>  <fragmenstein_outcome>  (164) 
too moved

>  <fragmenstein_mode>  (164) 
expansion

>  <fragmenstein_error>  (164) 


$$$$
C34677-P82
     RDKit          3D

 27 28  0  0  0  0  0  0  0  0999 V2000
  -13.3032  -23.0005   31.8416 C   0  0  0  0  0  0  0  0  0  0  0  0
  -12.2409  -24.0059   32.1613 C   0  0  0  0  0  0  0  0  0  0  0  0
  -11.9077  -24.2367   33.4752 C   0  0  0  0  0  0  0  0  0  0  0  0
  -10.8724  -24.9995   33.8642 N   0  0  0  0  0  0  0  0  0  0  0  0
  -10.0832  -25.4706   32.9002 C   0  0  0  0  0  0  0  0  0  0  0  0
  -10.4167  -25.4460   31.5774 C   0  0  0  0  0  0  0  0  0  0  0  0
  -11.5712  -24.7727   31.2055 C   0  0  0  0  0  0  0  0  0  0  0  0
  -12.0055  -24.7393   29.9039 N   0  0  0  0  0  0  0  0  0  0  0  0
  -11.3955  -25.5242   28.8663 C   0  0  0  0  0  0  0  0  0  0  0  0
  -11.7061  -24.7837   27.6379 C   0  0  0  0  0  0  0  0  0  0  0  0
  -12.2362  -25.3634   26.5207 C   0  0  0  0  0  0  0  0  0  0  0  0
  -12.6185  -24.6498   25.4665 N   0  0  0  0  0  0  0  0  0  0  0  0
  -12.4341  -23.3250   25.5611 C   0  0  0  0  0  0  0  0  0  0  0  0
  -11.9235  -22.6680   26.6085 N   0  0  0  0  0  0  0  0  0  0  0  0
  -11.5476  -23.4160   27.6256 C   0  0  0  0  0  0  0  0  0  0  0  0
  -14.2938  -23.4540   31.8791 H   0  0  0  0  0  0  0  0  0  0  0  0
  -13.2802  -22.1790   32.5673 H   0  0  0  0  0  0  0  0  0  0  0  0
  -13.1405  -22.5427   30.8616 H   0  0  0  0  0  0  0  0  0  0  0  0
  -12.4584  -23.7727   34.2797 H   0  0  0  0  0  0  0  0  0  0  0  0
   -9.1295  -25.8556   33.2241 H   0  0  0  0  0  0  0  0  0  0  0  0
   -9.7625  -25.9584   30.8890 H   0  0  0  0  0  0  0  0  0  0  0  0
  -13.0256  -24.6315   29.8304 H   0  0  0  0  0  0  0  0  0  0  0  0
  -11.8036  -26.5402   28.8598 H   0  0  0  0  0  0  0  0  0  0  0  0
  -10.3042  -25.5867   28.9340 H   0  0  0  0  0  0  0  0  0  0  0  0
  -12.4017  -26.4326   26.4483 H   0  0  0  0  0  0  0  0  0  0  0  0
  -12.7149  -22.7318   24.6963 H   0  0  0  0  0  0  0  0  0  0  0  0
  -11.1472  -22.8685   28.4739 H   0  0  0  0  0  0  0  0  0  0  0  0
  1  2  1  0
  2  3  2  0
  3  4  1  0
  4  5  2  0
  5  6  1  0
  6  7  2  0
  7  8  1  0
  8  9  1  0
  9 10  1  0
 10 11  2  0
 11 12  1  0
 12 13  2  0
 13 14  1  0
 14 15  2  0
  7  2  1  0
 15 10  1  0
  1 16  1  0
  1 17  1  0
  1 18  1  0
  3 19  1  0
  5 20  1  0
  6 21  1  0
  8 22  1  0
  9 23  1  0
  9 24  1  0
 11 25  1  0
 13 26  1  0
 15 27  1  0
M  END
>  <Energy>  (165) 
13.088273460724173

>  <compound_id>  (165) 
34677

>  <target_id>  (165) 
1

>  <reference_id>  (165) 
82

>  <inspiration_ids>  (165) 
[82, 54]

>  <energy_score>  (165) 
-3.814728301658164

>  <distance_score>  (165) 
1.6562638762815889

>  <path>  (165) 
/opt/xchem-fragalysis-2/maxwin/BulkDock/SCRATCH/511015/C34677-P82/C34677-P82.minimised.mol

>  <scratch_subdir>  (165) 
/opt/xchem-fragalysis-2/maxwin/BulkDock/SCRATCH/511015/C34677-P82

>  <fragmenstein_runtime>  (165) 
2.100184440612793

>  <fragmenstein_outcome>  (165) 
too moved

>  <fragmenstein_mode>  (165) 
expansion

>  <fragmenstein_error>  (165) 


$$$$
C34677-P54
     RDKit          3D

 27 28  0  0  0  0  0  0  0  0999 V2000
  -11.9911  -21.7526   30.4878 C   0  0  0  0  0  0  0  0  0  0  0  0
  -11.2030  -22.8391   31.1512 C   0  0  0  0  0  0  0  0  0  0  0  0
  -10.3322  -22.4765   32.1819 C   0  0  0  0  0  0  0  0  0  0  0  0
   -9.5033  -23.3210   32.8332 N   0  0  0  0  0  0  0  0  0  0  0  0
   -9.5277  -24.5960   32.4309 C   0  0  0  0  0  0  0  0  0  0  0  0
  -10.3922  -25.0564   31.4542 C   0  0  0  0  0  0  0  0  0  0  0  0
  -11.2482  -24.1898   30.7973 C   0  0  0  0  0  0  0  0  0  0  0  0
  -12.2070  -24.7543   29.9362 N   0  0  0  0  0  0  0  0  0  0  0  0
  -11.7034  -25.5196   28.8026 C   0  0  0  0  0  0  0  0  0  0  0  0
  -11.6891  -24.5919   27.6548 C   0  0  0  0  0  0  0  0  0  0  0  0
  -12.7706  -24.4792   26.8133 C   0  0  0  0  0  0  0  0  0  0  0  0
  -12.9048  -23.4830   25.9402 N   0  0  0  0  0  0  0  0  0  0  0  0
  -11.9188  -22.5724   25.9458 C   0  0  0  0  0  0  0  0  0  0  0  0
  -10.8251  -22.5951   26.7205 N   0  0  0  0  0  0  0  0  0  0  0  0
  -10.7172  -23.6242   27.5533 C   0  0  0  0  0  0  0  0  0  0  0  0
  -12.9182  -22.1007   30.0333 H   0  0  0  0  0  0  0  0  0  0  0  0
  -12.2589  -20.9675   31.2030 H   0  0  0  0  0  0  0  0  0  0  0  0
  -11.3842  -21.2952   29.6990 H   0  0  0  0  0  0  0  0  0  0  0  0
  -10.2733  -21.4448   32.5218 H   0  0  0  0  0  0  0  0  0  0  0  0
   -8.8616  -25.2582   32.9719 H   0  0  0  0  0  0  0  0  0  0  0  0
  -10.5203  -26.1043   31.2608 H   0  0  0  0  0  0  0  0  0  0  0  0
  -12.8652  -24.0407   29.6350 H   0  0  0  0  0  0  0  0  0  0  0  0
  -12.3836  -26.3581   28.6133 H   0  0  0  0  0  0  0  0  0  0  0  0
  -10.7153  -25.9571   28.9573 H   0  0  0  0  0  0  0  0  0  0  0  0
  -13.6101  -25.1668   26.8607 H   0  0  0  0  0  0  0  0  0  0  0  0
  -12.0075  -21.7614   25.2315 H   0  0  0  0  0  0  0  0  0  0  0  0
   -9.8469  -23.6056   28.2039 H   0  0  0  0  0  0  0  0  0  0  0  0
  1  2  1  0
  2  3  2  0
  3  4  1  0
  4  5  2  0
  5  6  1  0
  6  7  2  0
  7  8  1  0
  8  9  1  0
  9 10  1  0
 10 11  2  0
 11 12  1  0
 12 13  2  0
 13 14  1  0
 14 15  2  0
  7  2  1  0
 15 10  1  0
  1 16  1  0
  1 17  1  0
  1 18  1  0
  3 19  1  0
  5 20  1  0
  6 21  1  0
  8 22  1  0
  9 23  1  0
  9 24  1  0
 11 25  1  0
 13 26  1  0
 15 27  1  0
M  END
>  <Energy>  (166) 
11.622855017047106

>  <compound_id>  (166) 
34677

>  <target_id>  (166) 
1

>  <reference_id>  (166) 
54

>  <inspiration_ids>  (166) 
[82, 54]

>  <energy_score>  (166) 
-5.280146745334292

>  <distance_score>  (166) 
1.7554792360253704

>  <path>  (166) 
/opt/xchem-fragalysis-2/maxwin/BulkDock/SCRATCH/511015/C34677-P54/C34677-P54.minimised.mol

>  <scratch_subdir>  (166) 
/opt/xchem-fragalysis-2/maxwin/BulkDock/SCRATCH/511015/C34677-P54

>  <fragmenstein_runtime>  (166) 
2.019625425338745

>  <fragmenstein_outcome>  (166) 
too moved

>  <fragmenstein_mode>  (166) 
expansion

>  <fragmenstein_error>  (166) 


$$$$
C34678-P82
     RDKit          3D

 30 31  0  0  0  0  0  0  0  0999 V2000
  -15.5909  -22.7949   33.0188 C   0  0  0  0  0  0  0  0  0  0  0  0
  -14.4036  -23.5798   33.0926 O   0  0  0  0  0  0  0  0  0  0  0  0
  -13.4511  -23.2341   32.1886 C   0  0  0  0  0  0  0  0  0  0  0  0
  -13.4871  -22.2790   31.4283 O   0  0  0  0  0  0  0  0  0  0  0  0
  -12.3057  -24.1531   32.3233 C   0  0  0  0  0  0  0  0  0  0  0  0
  -11.8339  -24.3965   33.5892 C   0  0  0  0  0  0  0  0  0  0  0  0
  -10.7261  -25.1158   33.8645 N   0  0  0  0  0  0  0  0  0  0  0  0
   -9.9798  -25.4717   32.8204 C   0  0  0  0  0  0  0  0  0  0  0  0
  -10.4002  -25.3566   31.5246 C   0  0  0  0  0  0  0  0  0  0  0  0
  -11.6248  -24.7444   31.2564 C   0  0  0  0  0  0  0  0  0  0  0  0
  -12.0859  -24.6366   29.9637 N   0  0  0  0  0  0  0  0  0  0  0  0
  -11.5620  -25.4599   28.9049 C   0  0  0  0  0  0  0  0  0  0  0  0
  -11.8399  -24.7200   27.6712 C   0  0  0  0  0  0  0  0  0  0  0  0
  -11.6324  -23.3610   27.6394 C   0  0  0  0  0  0  0  0  0  0  0  0
  -11.9245  -22.6307   26.5841 N   0  0  0  0  0  0  0  0  0  0  0  0
  -12.4175  -23.2916   25.5300 C   0  0  0  0  0  0  0  0  0  0  0  0
  -12.6448  -24.6097   25.4554 N   0  0  0  0  0  0  0  0  0  0  0  0
  -12.3340  -25.3088   26.5410 C   0  0  0  0  0  0  0  0  0  0  0  0
  -15.9589  -22.7179   31.9907 H   0  0  0  0  0  0  0  0  0  0  0  0
  -16.3591  -23.2836   33.6243 H   0  0  0  0  0  0  0  0  0  0  0  0
  -15.4030  -21.7993   33.4322 H   0  0  0  0  0  0  0  0  0  0  0  0
  -12.3210  -23.9644   34.4490 H   0  0  0  0  0  0  0  0  0  0  0  0
   -8.9845  -25.8288   33.0459 H   0  0  0  0  0  0  0  0  0  0  0  0
   -9.7347  -25.7382   30.7655 H   0  0  0  0  0  0  0  0  0  0  0  0
  -13.0906  -24.4139   29.8875 H   0  0  0  0  0  0  0  0  0  0  0  0
  -10.4782  -25.6057   28.9334 H   0  0  0  0  0  0  0  0  0  0  0  0
  -12.0353  -26.4462   28.9144 H   0  0  0  0  0  0  0  0  0  0  0  0
  -11.2495  -22.8052   28.4906 H   0  0  0  0  0  0  0  0  0  0  0  0
  -12.6452  -22.7050   24.6450 H   0  0  0  0  0  0  0  0  0  0  0  0
  -12.5206  -26.3751   26.4798 H   0  0  0  0  0  0  0  0  0  0  0  0
  1  2  1  0
  2  3  1  0
  3  4  2  0
  3  5  1  0
  5  6  2  0
  6  7  1  0
  7  8  2  0
  8  9  1  0
  9 10  2  0
 10 11  1  0
 11 12  1  0
 12 13  1  0
 13 14  2  0
 14 15  1  0
 15 16  2  0
 16 17  1  0
 17 18  2  0
 10  5  1  0
 18 13  1  0
  1 19  1  0
  1 20  1  0
  1 21  1  0
  6 22  1  0
  8 23  1  0
  9 24  1  0
 11 25  1  0
 12 26  1  0
 12 27  1  0
 14 28  1  0
 16 29  1  0
 18 30  1  0
M  END
>  <Energy>  (167) 
42.668874646026097

>  <compound_id>  (167) 
34678

>  <target_id>  (167) 
1

>  <reference_id>  (167) 
82

>  <inspiration_ids>  (167) 
[82, 54]

>  <energy_score>  (167) 
-12.729986138216645

>  <distance_score>  (167) 
1.5298505148510708

>  <path>  (167) 
/opt/xchem-fragalysis-2/maxwin/BulkDock/SCRATCH/511015/C34678-P82/C34678-P82.minimised.mol

>  <scratch_subdir>  (167) 
/opt/xchem-fragalysis-2/maxwin/BulkDock/SCRATCH/511015/C34678-P82

>  <fragmenstein_runtime>  (167) 
2.570157289505005

>  <fragmenstein_outcome>  (167) 
too moved

>  <fragmenstein_mode>  (167) 
expansion

>  <fragmenstein_error>  (167) 


$$$$
C34678-P54
     RDKit          3D

 30 31  0  0  0  0  0  0  0  0999 V2000
  -12.4301  -19.3758   32.9935 C   0  0  0  0  0  0  0  0  0  0  0  0
  -11.5533  -20.4952   33.0089 O   0  0  0  0  0  0  0  0  0  0  0  0
  -11.4626  -21.2352   31.8775 C   0  0  0  0  0  0  0  0  0  0  0  0
  -11.9259  -20.9615   30.7807 O   0  0  0  0  0  0  0  0  0  0  0  0
  -10.6851  -22.4618   32.1802 C   0  0  0  0  0  0  0  0  0  0  0  0
   -9.9773  -22.5388   33.3812 C   0  0  0  0  0  0  0  0  0  0  0  0
   -9.2413  -23.6000   33.7837 N   0  0  0  0  0  0  0  0  0  0  0  0
   -9.1917  -24.6304   32.9330 C   0  0  0  0  0  0  0  0  0  0  0  0
   -9.9016  -24.6667   31.7459 C   0  0  0  0  0  0  0  0  0  0  0  0
  -10.6655  -23.5800   31.3285 C   0  0  0  0  0  0  0  0  0  0  0  0
  -11.5014  -23.7171   30.2134 N   0  0  0  0  0  0  0  0  0  0  0  0
  -11.1434  -24.6459   29.1520 C   0  0  0  0  0  0  0  0  0  0  0  0
  -11.6038  -24.0695   27.8792 C   0  0  0  0  0  0  0  0  0  0  0  0
  -10.9600  -22.9708   27.3656 C   0  0  0  0  0  0  0  0  0  0  0  0
  -11.4089  -22.3157   26.3059 N   0  0  0  0  0  0  0  0  0  0  0  0
  -12.5402  -22.7707   25.7593 C   0  0  0  0  0  0  0  0  0  0  0  0
  -13.2243  -23.8554   26.1517 N   0  0  0  0  0  0  0  0  0  0  0  0
  -12.7350  -24.4870   27.2216 C   0  0  0  0  0  0  0  0  0  0  0  0
  -12.9495  -19.3370   33.9551 H   0  0  0  0  0  0  0  0  0  0  0  0
  -11.8279  -18.4708   32.8907 H   0  0  0  0  0  0  0  0  0  0  0  0
  -13.1804  -19.4328   32.2015 H   0  0  0  0  0  0  0  0  0  0  0  0
   -9.9813  -21.7253   34.1019 H   0  0  0  0  0  0  0  0  0  0  0  0
   -8.5818  -25.4623   33.2638 H   0  0  0  0  0  0  0  0  0  0  0  0
   -9.9122  -25.5676   31.1651 H   0  0  0  0  0  0  0  0  0  0  0  0
  -11.8497  -22.7999   29.9034 H   0  0  0  0  0  0  0  0  0  0  0  0
  -10.0590  -24.7943   29.0736 H   0  0  0  0  0  0  0  0  0  0  0  0
  -11.6006  -25.6242   29.3397 H   0  0  0  0  0  0  0  0  0  0  0  0
  -10.0729  -22.5498   27.8300 H   0  0  0  0  0  0  0  0  0  0  0  0
  -12.9305  -22.2218   24.9083 H   0  0  0  0  0  0  0  0  0  0  0  0
  -13.3220  -25.3330   27.5658 H   0  0  0  0  0  0  0  0  0  0  0  0
  1  2  1  0
  2  3  1  0
  3  4  2  0
  3  5  1  0
  5  6  2  0
  6  7  1  0
  7  8  2  0
  8  9  1  0
  9 10  2  0
 10 11  1  0
 11 12  1  0
 12 13  1  0
 13 14  2  0
 14 15  1  0
 15 16  2  0
 16 17  1  0
 17 18  2  0
 10  5  1  0
 18 13  1  0
  1 19  1  0
  1 20  1  0
  1 21  1  0
  6 22  1  0
  8 23  1  0
  9 24  1  0
 11 25  1  0
 12 26  1  0
 12 27  1  0
 14 28  1  0
 16 29  1  0
 18 30  1  0
M  END
>  <Energy>  (168) 
35.015806698910055

>  <compound_id>  (168) 
34678

>  <target_id>  (168) 
1

>  <reference_id>  (168) 
54

>  <inspiration_ids>  (168) 
[82, 54]

>  <energy_score>  (168) 
-20.383054085332333

>  <distance_score>  (168) 
1.951264210280364

>  <path>  (168) 
/opt/xchem-fragalysis-2/maxwin/BulkDock/SCRATCH/511015/C34678-P54/C34678-P54.minimised.mol

>  <scratch_subdir>  (168) 
/opt/xchem-fragalysis-2/maxwin/BulkDock/SCRATCH/511015/C34678-P54

>  <fragmenstein_runtime>  (168) 
2.995683193206787

>  <fragmenstein_outcome>  (168) 
too moved

>  <fragmenstein_mode>  (168) 
expansion

>  <fragmenstein_error>  (168) 


$$$$
C34679-P82
     RDKit          3D

 24 25  0  0  0  0  0  0  0  0999 V2000
  -10.2493  -26.7678   30.9127 Br  0  0  0  0  0  0  0  0  0  0  0  0
  -11.1979  -25.2706   31.5227 C   0  0  0  0  0  0  0  0  0  0  0  0
  -11.8138  -24.5417   30.5339 C   0  0  0  0  0  0  0  0  0  0  0  0
  -12.0158  -23.1952   30.7101 C   0  0  0  0  0  0  0  0  0  0  0  0
  -12.2399  -22.3139   29.6438 N   0  0  0  0  0  0  0  0  0  0  0  0
  -11.5634  -22.4286   28.3231 C   0  0  0  0  0  0  0  0  0  0  0  0
  -11.5521  -23.7447   27.6585 C   0  0  0  0  0  0  0  0  0  0  0  0
  -10.5280  -24.6314   27.8488 C   0  0  0  0  0  0  0  0  0  0  0  0
  -10.5613  -25.9098   27.4734 N   0  0  0  0  0  0  0  0  0  0  0  0
  -11.6755  -26.2995   26.8659 C   0  0  0  0  0  0  0  0  0  0  0  0
  -12.7022  -25.5154   26.5409 N   0  0  0  0  0  0  0  0  0  0  0  0
  -12.5895  -24.2315   26.9144 C   0  0  0  0  0  0  0  0  0  0  0  0
  -12.0707  -22.7865   32.0396 C   0  0  0  0  0  0  0  0  0  0  0  0
  -11.6741  -23.6747   33.0376 C   0  0  0  0  0  0  0  0  0  0  0  0
  -11.1067  -24.8677   32.7936 N   0  0  0  0  0  0  0  0  0  0  0  0
  -12.0690  -25.0469   29.6210 H   0  0  0  0  0  0  0  0  0  0  0  0
  -12.1273  -21.3641   29.9754 H   0  0  0  0  0  0  0  0  0  0  0  0
  -12.0264  -21.7172   27.6459 H   0  0  0  0  0  0  0  0  0  0  0  0
  -10.5438  -22.0659   28.4448 H   0  0  0  0  0  0  0  0  0  0  0  0
   -9.6578  -24.3942   28.4333 H   0  0  0  0  0  0  0  0  0  0  0  0
  -11.7464  -27.3443   26.5858 H   0  0  0  0  0  0  0  0  0  0  0  0
  -13.4026  -23.5911   26.6009 H   0  0  0  0  0  0  0  0  0  0  0  0
  -12.3988  -21.7934   32.3175 H   0  0  0  0  0  0  0  0  0  0  0  0
  -11.7696  -23.4104   34.0846 H   0  0  0  0  0  0  0  0  0  0  0  0
  1  2  1  0
  2  3  2  0
  3  4  1  0
  4  5  1  0
  5  6  1  0
  6  7  1  0
  7  8  2  0
  8  9  1  0
  9 10  2  0
 10 11  1  0
 11 12  2  0
  4 13  2  0
 13 14  1  0
 14 15  2  0
 15  2  1  0
 12  7  1  0
  3 16  1  0
  5 17  1  0
  6 18  1  0
  6 19  1  0
  8 20  1  0
 10 21  1  0
 12 22  1  0
 13 23  1  0
 14 24  1  0
M  END
>  <Energy>  (169) 
19.88888668361124

>  <compound_id>  (169) 
34679

>  <target_id>  (169) 
1

>  <reference_id>  (169) 
82

>  <inspiration_ids>  (169) 
[82, 54]

>  <energy_score>  (169) 
16.213117634300318

>  <distance_score>  (169) 
2.8604281336345316

>  <path>  (169) 
/opt/xchem-fragalysis-2/maxwin/BulkDock/SCRATCH/511015/C34679-P82/C34679-P82.minimised.mol

>  <scratch_subdir>  (169) 
/opt/xchem-fragalysis-2/maxwin/BulkDock/SCRATCH/511015/C34679-P82

>  <fragmenstein_runtime>  (169) 
1.6535098552703857

>  <fragmenstein_outcome>  (169) 
too moved

>  <fragmenstein_mode>  (169) 
expansion

>  <fragmenstein_error>  (169) 


$$$$
C34679-P54
     RDKit          3D

 24 25  0  0  0  0  0  0  0  0999 V2000
  -12.9364  -28.9443   30.8732 Br  0  0  0  0  0  0  0  0  0  0  0  0
  -12.3928  -27.1480   30.6176 C   0  0  0  0  0  0  0  0  0  0  0  0
  -12.9995  -26.4243   29.6069 C   0  0  0  0  0  0  0  0  0  0  0  0
  -12.7003  -25.0791   29.4922 C   0  0  0  0  0  0  0  0  0  0  0  0
  -13.3240  -24.3056   28.4798 N   0  0  0  0  0  0  0  0  0  0  0  0
  -12.6390  -24.3020   27.1533 C   0  0  0  0  0  0  0  0  0  0  0  0
  -11.2280  -23.8680   27.3674 C   0  0  0  0  0  0  0  0  0  0  0  0
  -10.9395  -22.5696   27.7355 C   0  0  0  0  0  0  0  0  0  0  0  0
   -9.8964  -22.2659   28.5202 N   0  0  0  0  0  0  0  0  0  0  0  0
   -9.1071  -23.2915   28.8713 C   0  0  0  0  0  0  0  0  0  0  0  0
   -9.2173  -24.5547   28.4471 N   0  0  0  0  0  0  0  0  0  0  0  0
  -10.2751  -24.8184   27.6720 C   0  0  0  0  0  0  0  0  0  0  0  0
  -11.7383  -24.5362   30.3578 C   0  0  0  0  0  0  0  0  0  0  0  0
  -11.1029  -25.3624   31.2575 C   0  0  0  0  0  0  0  0  0  0  0  0
  -11.4692  -26.6398   31.4569 N   0  0  0  0  0  0  0  0  0  0  0  0
  -13.7410  -26.8781   28.9587 H   0  0  0  0  0  0  0  0  0  0  0  0
  -13.3395  -23.3465   28.8218 H   0  0  0  0  0  0  0  0  0  0  0  0
  -12.6971  -25.2956   26.6932 H   0  0  0  0  0  0  0  0  0  0  0  0
  -13.1583  -23.6064   26.4847 H   0  0  0  0  0  0  0  0  0  0  0  0
  -11.6138  -21.7439   27.5259 H   0  0  0  0  0  0  0  0  0  0  0  0
   -8.2879  -23.0844   29.5488 H   0  0  0  0  0  0  0  0  0  0  0  0
  -10.4139  -25.8694   27.4354 H   0  0  0  0  0  0  0  0  0  0  0  0
  -11.4806  -23.4835   30.3375 H   0  0  0  0  0  0  0  0  0  0  0  0
  -10.2962  -24.9913   31.8838 H   0  0  0  0  0  0  0  0  0  0  0  0
  1  2  1  0
  2  3  2  0
  3  4  1  0
  4  5  1  0
  5  6  1  0
  6  7  1  0
  7  8  2  0
  8  9  1  0
  9 10  2  0
 10 11  1  0
 11 12  2  0
  4 13  2  0
 13 14  1  0
 14 15  2  0
 15  2  1  0
 12  7  1  0
  3 16  1  0
  5 17  1  0
  6 18  1  0
  6 19  1  0
  8 20  1  0
 10 21  1  0
 12 22  1  0
 13 23  1  0
 14 24  1  0
M  END
>  <Energy>  (170) 
16.204548894578625

>  <compound_id>  (170) 
34679

>  <target_id>  (170) 
1

>  <reference_id>  (170) 
54

>  <inspiration_ids>  (170) 
[82, 54]

>  <energy_score>  (170) 
12.528779845267138

>  <distance_score>  (170) 
2.033783845564202

>  <path>  (170) 
/opt/xchem-fragalysis-2/maxwin/BulkDock/SCRATCH/511015/C34679-P54/C34679-P54.minimised.mol

>  <scratch_subdir>  (170) 
/opt/xchem-fragalysis-2/maxwin/BulkDock/SCRATCH/511015/C34679-P54

>  <fragmenstein_runtime>  (170) 
1.4597063064575195

>  <fragmenstein_outcome>  (170) 
too moved

>  <fragmenstein_mode>  (170) 
expansion

>  <fragmenstein_error>  (170) 


$$$$
C34680-P82
     RDKit          3D

 24 25  0  0  0  0  0  0  0  0999 V2000
  -10.0554  -27.0379   30.8195 Cl  0  0  0  0  0  0  0  0  0  0  0  0
  -10.4607  -25.6886   31.7510 C   0  0  0  0  0  0  0  0  0  0  0  0
  -10.6123  -24.5025   31.1079 C   0  0  0  0  0  0  0  0  0  0  0  0
  -11.3434  -23.4775   31.6951 C   0  0  0  0  0  0  0  0  0  0  0  0
  -11.5954  -22.2947   30.9865 N   0  0  0  0  0  0  0  0  0  0  0  0
  -12.4099  -22.4273   29.7772 C   0  0  0  0  0  0  0  0  0  0  0  0
  -12.0565  -23.4526   28.7701 C   0  0  0  0  0  0  0  0  0  0  0  0
  -11.4065  -23.1353   27.6209 C   0  0  0  0  0  0  0  0  0  0  0  0
  -10.9852  -24.0561   26.7467 N   0  0  0  0  0  0  0  0  0  0  0  0
  -11.2840  -25.3287   27.0311 C   0  0  0  0  0  0  0  0  0  0  0  0
  -11.9833  -25.7608   28.0741 N   0  0  0  0  0  0  0  0  0  0  0  0
  -12.3628  -24.7916   28.9121 C   0  0  0  0  0  0  0  0  0  0  0  0
  -11.7646  -23.6510   32.9916 C   0  0  0  0  0  0  0  0  0  0  0  0
  -11.4259  -24.8408   33.5992 C   0  0  0  0  0  0  0  0  0  0  0  0
  -10.8041  -25.8777   33.0165 N   0  0  0  0  0  0  0  0  0  0  0  0
  -10.2004  -24.4290   30.1130 H   0  0  0  0  0  0  0  0  0  0  0  0
  -12.0021  -21.6035   31.6125 H   0  0  0  0  0  0  0  0  0  0  0  0
  -12.3823  -21.4479   29.2909 H   0  0  0  0  0  0  0  0  0  0  0  0
  -13.4126  -22.5530   30.1742 H   0  0  0  0  0  0  0  0  0  0  0  0
  -11.2005  -22.1021   27.3741 H   0  0  0  0  0  0  0  0  0  0  0  0
  -10.9512  -26.0834   26.3297 H   0  0  0  0  0  0  0  0  0  0  0  0
  -12.9052  -25.1248   29.7892 H   0  0  0  0  0  0  0  0  0  0  0  0
  -12.3017  -22.8915   33.5431 H   0  0  0  0  0  0  0  0  0  0  0  0
  -11.6330  -24.9979   34.6352 H   0  0  0  0  0  0  0  0  0  0  0  0
  1  2  1  0
  2  3  2  0
  3  4  1  0
  4  5  1  0
  5  6  1  0
  6  7  1  0
  7  8  2  0
  8  9  1  0
  9 10  2  0
 10 11  1  0
 11 12  2  0
  4 13  2  0
 13 14  1  0
 14 15  2  0
 15  2  1  0
 12  7  1  0
  3 16  1  0
  5 17  1  0
  6 18  1  0
  6 19  1  0
  8 20  1  0
 10 21  1  0
 12 22  1  0
 13 23  1  0
 14 24  1  0
M  END
>  <Energy>  (171) 
15.144287007537798

>  <compound_id>  (171) 
34680

>  <target_id>  (171) 
1

>  <reference_id>  (171) 
82

>  <inspiration_ids>  (171) 
[82, 54]

>  <energy_score>  (171) 
8.245433503159177

>  <distance_score>  (171) 
2.459269889015865

>  <path>  (171) 
/opt/xchem-fragalysis-2/maxwin/BulkDock/SCRATCH/511015/C34680-P82/C34680-P82.minimised.mol

>  <scratch_subdir>  (171) 
/opt/xchem-fragalysis-2/maxwin/BulkDock/SCRATCH/511015/C34680-P82

>  <fragmenstein_runtime>  (171) 
1.5593810081481934

>  <fragmenstein_outcome>  (171) 
too moved

>  <fragmenstein_mode>  (171) 
expansion

>  <fragmenstein_error>  (171) 


$$$$
C34680-P54
     RDKit          3D

 24 25  0  0  0  0  0  0  0  0999 V2000
  -12.7129  -28.7632   30.8944 Cl  0  0  0  0  0  0  0  0  0  0  0  0
  -12.3315  -27.1178   30.6145 C   0  0  0  0  0  0  0  0  0  0  0  0
  -12.9622  -26.4197   29.6053 C   0  0  0  0  0  0  0  0  0  0  0  0
  -12.6939  -25.0686   29.4910 C   0  0  0  0  0  0  0  0  0  0  0  0
  -13.3324  -24.3074   28.4782 N   0  0  0  0  0  0  0  0  0  0  0  0
  -12.6531  -24.2954   27.1487 C   0  0  0  0  0  0  0  0  0  0  0  0
  -11.2400  -23.8656   27.3569 C   0  0  0  0  0  0  0  0  0  0  0  0
  -10.9447  -22.5695   27.7283 C   0  0  0  0  0  0  0  0  0  0  0  0
   -9.8971  -22.2725   28.5100 N   0  0  0  0  0  0  0  0  0  0  0  0
   -9.1102  -23.3026   28.8549 C   0  0  0  0  0  0  0  0  0  0  0  0
   -9.2288  -24.5639   28.4257 N   0  0  0  0  0  0  0  0  0  0  0  0
  -10.2898  -24.8206   27.6541 C   0  0  0  0  0  0  0  0  0  0  0  0
  -11.7398  -24.5038   30.3544 C   0  0  0  0  0  0  0  0  0  0  0  0
  -11.0846  -25.3132   31.2565 C   0  0  0  0  0  0  0  0  0  0  0  0
  -11.4247  -26.5963   31.4597 N   0  0  0  0  0  0  0  0  0  0  0  0
  -13.6896  -26.9010   28.9625 H   0  0  0  0  0  0  0  0  0  0  0  0
  -13.3612  -23.3479   28.8179 H   0  0  0  0  0  0  0  0  0  0  0  0
  -13.1749  -23.5957   26.4864 H   0  0  0  0  0  0  0  0  0  0  0  0
  -12.7150  -25.2863   26.6833 H   0  0  0  0  0  0  0  0  0  0  0  0
  -11.6162  -21.7402   27.5244 H   0  0  0  0  0  0  0  0  0  0  0  0
   -8.2866  -23.1012   29.5295 H   0  0  0  0  0  0  0  0  0  0  0  0
  -10.4330  -25.8703   27.4149 H   0  0  0  0  0  0  0  0  0  0  0  0
  -11.5021  -23.4461   30.3296 H   0  0  0  0  0  0  0  0  0  0  0  0
  -10.2841  -24.9237   31.8799 H   0  0  0  0  0  0  0  0  0  0  0  0
  1  2  1  0
  2  3  2  0
  3  4  1  0
  4  5  1  0
  5  6  1  0
  6  7  1  0
  7  8  2  0
  8  9  1  0
  9 10  2  0
 10 11  1  0
 11 12  2  0
  4 13  2  0
 13 14  1  0
 14 15  2  0
 15  2  1  0
 12  7  1  0
  3 16  1  0
  5 17  1  0
  6 18  1  0
  6 19  1  0
  8 20  1  0
 10 21  1  0
 12 22  1  0
 13 23  1  0
 14 24  1  0
M  END
>  <Energy>  (172) 
15.308280162438638

>  <compound_id>  (172) 
34680

>  <target_id>  (172) 
1

>  <reference_id>  (172) 
54

>  <inspiration_ids>  (172) 
[82, 54]

>  <energy_score>  (172) 
8.409426658059772

>  <distance_score>  (172) 
2.027061934321119

>  <path>  (172) 
/opt/xchem-fragalysis-2/maxwin/BulkDock/SCRATCH/511015/C34680-P54/C34680-P54.minimised.mol

>  <scratch_subdir>  (172) 
/opt/xchem-fragalysis-2/maxwin/BulkDock/SCRATCH/511015/C34680-P54

>  <fragmenstein_runtime>  (172) 
2.0532171726226807

>  <fragmenstein_outcome>  (172) 
too moved

>  <fragmenstein_mode>  (172) 
expansion

>  <fragmenstein_error>  (172) 


$$$$
C34681-P82
     RDKit          3D

 27 28  0  0  0  0  0  0  0  0999 V2000
  -14.3372  -23.3472   33.0105 O   0  0  0  0  0  0  0  0  0  0  0  0
  -13.4563  -23.4570   32.1783 C   0  0  0  0  0  0  0  0  0  0  0  0
  -13.4844  -22.8006   31.0090 O   0  0  0  0  0  0  0  0  0  0  0  0
  -12.2319  -24.2632   32.2991 C   0  0  0  0  0  0  0  0  0  0  0  0
  -11.7761  -24.4559   33.5757 C   0  0  0  0  0  0  0  0  0  0  0  0
  -10.6496  -25.1318   33.8744 N   0  0  0  0  0  0  0  0  0  0  0  0
   -9.8776  -25.4856   32.8470 C   0  0  0  0  0  0  0  0  0  0  0  0
  -10.2908  -25.4385   31.5457 C   0  0  0  0  0  0  0  0  0  0  0  0
  -11.5311  -24.8837   31.2536 C   0  0  0  0  0  0  0  0  0  0  0  0
  -12.0108  -24.8919   29.9671 N   0  0  0  0  0  0  0  0  0  0  0  0
  -11.4062  -25.6010   28.8756 C   0  0  0  0  0  0  0  0  0  0  0  0
  -11.7111  -24.7964   27.6863 C   0  0  0  0  0  0  0  0  0  0  0  0
  -12.1690  -25.3407   26.5190 C   0  0  0  0  0  0  0  0  0  0  0  0
  -12.5128  -24.5946   25.4756 N   0  0  0  0  0  0  0  0  0  0  0  0
  -12.3595  -23.2726   25.6290 C   0  0  0  0  0  0  0  0  0  0  0  0
  -11.9159  -22.6451   26.7267 N   0  0  0  0  0  0  0  0  0  0  0  0
  -11.5835  -23.4256   27.7368 C   0  0  0  0  0  0  0  0  0  0  0  0
  -14.3997  -22.9567   30.6736 H   0  0  0  0  0  0  0  0  0  0  0  0
  -12.3016  -24.0291   34.4173 H   0  0  0  0  0  0  0  0  0  0  0  0
   -8.8747  -25.8073   33.0946 H   0  0  0  0  0  0  0  0  0  0  0  0
   -9.6235  -25.8501   30.8057 H   0  0  0  0  0  0  0  0  0  0  0  0
  -13.0065  -24.6675   29.8742 H   0  0  0  0  0  0  0  0  0  0  0  0
  -11.8213  -26.6121   28.8102 H   0  0  0  0  0  0  0  0  0  0  0  0
  -10.3168  -25.6841   28.9294 H   0  0  0  0  0  0  0  0  0  0  0  0
  -12.2971  -26.4101   26.3915 H   0  0  0  0  0  0  0  0  0  0  0  0
  -12.6017  -22.6560   24.7687 H   0  0  0  0  0  0  0  0  0  0  0  0
  -11.2377  -22.9041   28.6249 H   0  0  0  0  0  0  0  0  0  0  0  0
  1  2  2  0
  2  3  1  0
  2  4  1  0
  4  5  2  0
  5  6  1  0
  6  7  2  0
  7  8  1  0
  8  9  2  0
  9 10  1  0
 10 11  1  0
 11 12  1  0
 12 13  2  0
 13 14  1  0
 14 15  2  0
 15 16  1  0
 16 17  2  0
  9  4  1  0
 17 12  1  0
  3 18  1  0
  5 19  1  0
  7 20  1  0
  8 21  1  0
 10 22  1  0
 11 23  1  0
 11 24  1  0
 13 25  1  0
 15 26  1  0
 17 27  1  0
M  END
>  <Energy>  (173) 
34.345867734626168

>  <compound_id>  (173) 
34681

>  <target_id>  (173) 
1

>  <reference_id>  (173) 
82

>  <inspiration_ids>  (173) 
[82, 54]

>  <energy_score>  (173) 
-13.7343197219015

>  <distance_score>  (173) 
1.502707276672838

>  <path>  (173) 
/opt/xchem-fragalysis-2/maxwin/BulkDock/SCRATCH/511015/C34681-P82/C34681-P82.minimised.mol

>  <scratch_subdir>  (173) 
/opt/xchem-fragalysis-2/maxwin/BulkDock/SCRATCH/511015/C34681-P82

>  <fragmenstein_runtime>  (173) 
2.7287356853485107

>  <fragmenstein_outcome>  (173) 
too moved

>  <fragmenstein_mode>  (173) 
expansion

>  <fragmenstein_error>  (173) 


$$$$
C34681-P54
     RDKit          3D

 27 28  0  0  0  0  0  0  0  0999 V2000
  -11.4598  -20.2956   31.1603 O   0  0  0  0  0  0  0  0  0  0  0  0
  -11.4751  -21.4275   30.7122 C   0  0  0  0  0  0  0  0  0  0  0  0
  -11.9378  -21.6772   29.4731 O   0  0  0  0  0  0  0  0  0  0  0  0
  -10.9248  -22.6399   31.3590 C   0  0  0  0  0  0  0  0  0  0  0  0
  -10.1457  -22.4295   32.4923 C   0  0  0  0  0  0  0  0  0  0  0  0
   -9.4359  -23.3943   33.1275 N   0  0  0  0  0  0  0  0  0  0  0  0
   -9.5023  -24.6242   32.5979 C   0  0  0  0  0  0  0  0  0  0  0  0
  -10.3190  -24.9432   31.5243 C   0  0  0  0  0  0  0  0  0  0  0  0
  -11.0565  -23.9575   30.8813 C   0  0  0  0  0  0  0  0  0  0  0  0
  -12.0311  -24.3550   29.9473 N   0  0  0  0  0  0  0  0  0  0  0  0
  -11.6804  -25.3075   28.8981 C   0  0  0  0  0  0  0  0  0  0  0  0
  -11.7009  -24.5346   27.6399 C   0  0  0  0  0  0  0  0  0  0  0  0
  -12.8376  -24.4276   26.8739 C   0  0  0  0  0  0  0  0  0  0  0  0
  -12.9956  -23.4804   25.9493 N   0  0  0  0  0  0  0  0  0  0  0  0
  -11.9741  -22.6236   25.8143 C   0  0  0  0  0  0  0  0  0  0  0  0
  -10.8130  -22.6700   26.4820 N   0  0  0  0  0  0  0  0  0  0  0  0
  -10.6889  -23.6422   27.3774 C   0  0  0  0  0  0  0  0  0  0  0  0
  -11.9073  -20.8084   29.0137 H   0  0  0  0  0  0  0  0  0  0  0  0
  -10.0405  -21.4365   32.9246 H   0  0  0  0  0  0  0  0  0  0  0  0
   -8.9215  -25.3758   33.1212 H   0  0  0  0  0  0  0  0  0  0  0  0
  -10.4845  -25.9696   31.2475 H   0  0  0  0  0  0  0  0  0  0  0  0
  -12.4502  -23.4983   29.5568 H   0  0  0  0  0  0  0  0  0  0  0  0
  -12.4238  -26.1122   28.8786 H   0  0  0  0  0  0  0  0  0  0  0  0
  -10.7036  -25.7792   29.0269 H   0  0  0  0  0  0  0  0  0  0  0  0
  -13.7057  -25.0593   27.0384 H   0  0  0  0  0  0  0  0  0  0  0  0
  -12.0904  -21.8415   25.0712 H   0  0  0  0  0  0  0  0  0  0  0  0
   -9.7743  -23.6200   27.9627 H   0  0  0  0  0  0  0  0  0  0  0  0
  1  2  2  0
  2  3  1  0
  2  4  1  0
  4  5  2  0
  5  6  1  0
  6  7  2  0
  7  8  1  0
  8  9  2  0
  9 10  1  0
 10 11  1  0
 11 12  1  0
 12 13  2  0
 13 14  1  0
 14 15  2  0
 15 16  1  0
 16 17  2  0
  9  4  1  0
 17 12  1  0
  3 18  1  0
  5 19  1  0
  7 20  1  0
  8 21  1  0
 10 22  1  0
 11 23  1  0
 11 24  1  0
 13 25  1  0
 15 26  1  0
 17 27  1  0
M  END
>  <Energy>  (174) 
24.457771160415664

>  <compound_id>  (174) 
34681

>  <target_id>  (174) 
1

>  <reference_id>  (174) 
54

>  <inspiration_ids>  (174) 
[82, 54]

>  <energy_score>  (174) 
-23.622416296111

>  <distance_score>  (174) 
1.7571135267043385

>  <path>  (174) 
/opt/xchem-fragalysis-2/maxwin/BulkDock/SCRATCH/511015/C34681-P54/C34681-P54.minimised.mol

>  <scratch_subdir>  (174) 
/opt/xchem-fragalysis-2/maxwin/BulkDock/SCRATCH/511015/C34681-P54

>  <fragmenstein_runtime>  (174) 
3.321396589279175

>  <fragmenstein_outcome>  (174) 
too moved

>  <fragmenstein_mode>  (174) 
expansion

>  <fragmenstein_error>  (174) 


$$$$
C34682-P82
     RDKit          3D

 24 25  0  0  0  0  0  0  0  0999 V2000
  -11.7116  -26.5750   29.6996 Br  0  0  0  0  0  0  0  0  0  0  0  0
  -11.4998  -25.0843   30.7977 C   0  0  0  0  0  0  0  0  0  0  0  0
  -10.9336  -25.3939   32.0346 C   0  0  0  0  0  0  0  0  0  0  0  0
  -10.9872  -24.6017   33.1122 N   0  0  0  0  0  0  0  0  0  0  0  0
  -11.6414  -23.4472   32.9301 C   0  0  0  0  0  0  0  0  0  0  0  0
  -12.1038  -23.0012   31.6995 C   0  0  0  0  0  0  0  0  0  0  0  0
  -12.0137  -23.8139   30.5570 C   0  0  0  0  0  0  0  0  0  0  0  0
  -12.4854  -23.2261   29.3640 N   0  0  0  0  0  0  0  0  0  0  0  0
  -12.6401  -23.7770   27.9630 C   0  0  0  0  0  0  0  0  0  0  0  0
  -11.4302  -24.2625   27.3229 C   0  0  0  0  0  0  0  0  0  0  0  0
  -11.4260  -25.4725   26.6836 C   0  0  0  0  0  0  0  0  0  0  0  0
  -10.4774  -26.3582   26.9549 N   0  0  0  0  0  0  0  0  0  0  0  0
   -9.5899  -25.9584   27.8851 C   0  0  0  0  0  0  0  0  0  0  0  0
   -9.4770  -24.7391   28.4095 N   0  0  0  0  0  0  0  0  0  0  0  0
  -10.3211  -23.8426   27.9432 C   0  0  0  0  0  0  0  0  0  0  0  0
  -10.4701  -26.3589   32.2176 H   0  0  0  0  0  0  0  0  0  0  0  0
  -11.7847  -22.8432   33.8192 H   0  0  0  0  0  0  0  0  0  0  0  0
  -12.5532  -22.0174   31.6380 H   0  0  0  0  0  0  0  0  0  0  0  0
  -13.4653  -23.0443   29.6283 H   0  0  0  0  0  0  0  0  0  0  0  0
  -13.0507  -22.9982   27.3223 H   0  0  0  0  0  0  0  0  0  0  0  0
  -13.3037  -24.6456   27.9847 H   0  0  0  0  0  0  0  0  0  0  0  0
  -12.2752  -25.8467   26.1239 H   0  0  0  0  0  0  0  0  0  0  0  0
   -8.8500  -26.6650   28.2196 H   0  0  0  0  0  0  0  0  0  0  0  0
  -10.2992  -22.8341   28.3372 H   0  0  0  0  0  0  0  0  0  0  0  0
  1  2  1  0
  2  3  2  0
  3  4  1  0
  4  5  2  0
  5  6  1  0
  6  7  2  0
  7  8  1  0
  8  9  1  0
  9 10  1  0
 10 11  2  0
 11 12  1  0
 12 13  2  0
 13 14  1  0
 14 15  2  0
  7  2  1  0
 15 10  1  0
  3 16  1  0
  5 17  1  0
  6 18  1  0
  8 19  1  0
  9 20  1  0
  9 21  1  0
 11 22  1  0
 13 23  1  0
 15 24  1  0
M  END
>  <Energy>  (175) 
99.453144398611926

>  <compound_id>  (175) 
34682

>  <target_id>  (175) 
1

>  <reference_id>  (175) 
82

>  <inspiration_ids>  (175) 
[82, 54]

>  <energy_score>  (175) 
58.11890312220166

>  <distance_score>  (175) 
2.5386688871319225

>  <path>  (175) 
/opt/xchem-fragalysis-2/maxwin/BulkDock/SCRATCH/511015/C34682-P82/C34682-P82.minimised.mol

>  <scratch_subdir>  (175) 
/opt/xchem-fragalysis-2/maxwin/BulkDock/SCRATCH/511015/C34682-P82

>  <fragmenstein_runtime>  (175) 
1.3568909168243408

>  <fragmenstein_outcome>  (175) 
too moved

>  <fragmenstein_mode>  (175) 
expansion

>  <fragmenstein_error>  (175) 


$$$$
C34682-P54
     RDKit          3D

 24 25  0  0  0  0  0  0  0  0999 V2000
  -13.5427  -26.9135   28.8381 Br  0  0  0  0  0  0  0  0  0  0  0  0
  -12.3886  -25.8376   29.8452 C   0  0  0  0  0  0  0  0  0  0  0  0
  -11.6147  -26.4189   30.8274 C   0  0  0  0  0  0  0  0  0  0  0  0
  -10.7738  -25.7311   31.6299 N   0  0  0  0  0  0  0  0  0  0  0  0
  -10.6899  -24.4024   31.4408 C   0  0  0  0  0  0  0  0  0  0  0  0
  -11.4923  -23.7257   30.5457 C   0  0  0  0  0  0  0  0  0  0  0  0
  -12.3425  -24.4564   29.6896 C   0  0  0  0  0  0  0  0  0  0  0  0
  -13.0994  -23.7707   28.6876 N   0  0  0  0  0  0  0  0  0  0  0  0
  -12.6299  -23.9460   27.2685 C   0  0  0  0  0  0  0  0  0  0  0  0
  -11.1544  -23.7369   27.2753 C   0  0  0  0  0  0  0  0  0  0  0  0
  -10.3430  -24.8250   27.5141 C   0  0  0  0  0  0  0  0  0  0  0  0
   -9.2544  -24.7371   28.2809 N   0  0  0  0  0  0  0  0  0  0  0  0
   -8.9666  -23.5157   28.7471 C   0  0  0  0  0  0  0  0  0  0  0  0
   -9.5853  -22.3721   28.4145 N   0  0  0  0  0  0  0  0  0  0  0  0
  -10.6673  -22.4998   27.6409 C   0  0  0  0  0  0  0  0  0  0  0  0
  -11.6480  -27.4900   31.0084 H   0  0  0  0  0  0  0  0  0  0  0  0
   -9.9835  -23.8750   32.0751 H   0  0  0  0  0  0  0  0  0  0  0  0
  -11.4229  -22.6442   30.4931 H   0  0  0  0  0  0  0  0  0  0  0  0
  -13.0125  -22.7857   28.9281 H   0  0  0  0  0  0  0  0  0  0  0  0
  -13.1160  -23.2027   26.6280 H   0  0  0  0  0  0  0  0  0  0  0  0
  -12.9064  -24.9251   26.8678 H   0  0  0  0  0  0  0  0  0  0  0  0
  -10.6412  -25.8364   27.2551 H   0  0  0  0  0  0  0  0  0  0  0  0
   -8.1334  -23.4384   29.4336 H   0  0  0  0  0  0  0  0  0  0  0  0
  -11.2298  -21.5840   27.4775 H   0  0  0  0  0  0  0  0  0  0  0  0
  1  2  1  0
  2  3  2  0
  3  4  1  0
  4  5  2  0
  5  6  1  0
  6  7  2  0
  7  8  1  0
  8  9  1  0
  9 10  1  0
 10 11  2  0
 11 12  1  0
 12 13  2  0
 13 14  1  0
 14 15  2  0
  7  2  1  0
 15 10  1  0
  3 16  1  0
  5 17  1  0
  6 18  1  0
  8 19  1  0
  9 20  1  0
  9 21  1  0
 11 22  1  0
 13 23  1  0
 15 24  1  0
M  END
>  <Energy>  (176) 
57.429804342007458

>  <compound_id>  (176) 
34682

>  <target_id>  (176) 
1

>  <reference_id>  (176) 
54

>  <inspiration_ids>  (176) 
[82, 54]

>  <energy_score>  (176) 
16.095563065597275

>  <distance_score>  (176) 
2.079254334250848

>  <path>  (176) 
/opt/xchem-fragalysis-2/maxwin/BulkDock/SCRATCH/511015/C34682-P54/C34682-P54.minimised.mol

>  <scratch_subdir>  (176) 
/opt/xchem-fragalysis-2/maxwin/BulkDock/SCRATCH/511015/C34682-P54

>  <fragmenstein_runtime>  (176) 
1.2883732318878174

>  <fragmenstein_outcome>  (176) 
too moved

>  <fragmenstein_mode>  (176) 
expansion

>  <fragmenstein_error>  (176) 


$$$$
C34683-P82
     RDKit          3D

 34 35  0  0  0  0  0  0  0  0999 V2000
   -9.5446  -24.9193   32.7857 C   0  0  0  0  0  0  0  0  0  0  0  0
  -10.8693  -24.8831   32.1169 N   0  0  0  0  0  0  0  0  0  0  0  0
  -10.4222  -26.2035   31.6381 C   0  0  0  0  0  0  0  0  0  0  0  0
  -11.8947  -24.5263   33.0606 C   0  0  0  0  0  0  0  0  0  0  0  0
  -12.5789  -25.2137   33.7577 O   0  0  0  0  0  0  0  0  0  0  0  0
  -12.2685  -23.0480   33.1327 C   0  0  0  0  0  0  0  0  0  0  0  0
  -11.8960  -22.3911   32.0052 C   0  0  0  0  0  0  0  0  0  0  0  0
  -12.8707  -22.3863   31.0438 C   0  0  0  0  0  0  0  0  0  0  0  0
  -12.5218  -22.5922   29.6686 N   0  0  0  0  0  0  0  0  0  0  0  0
  -11.8244  -23.8845   29.5354 C   0  0  0  0  0  0  0  0  0  0  0  0
  -11.8991  -24.5117   28.1886 C   0  0  0  0  0  0  0  0  0  0  0  0
  -11.9219  -25.8911   28.0949 C   0  0  0  0  0  0  0  0  0  0  0  0
  -11.9812  -26.5799   26.9500 N   0  0  0  0  0  0  0  0  0  0  0  0
  -11.9952  -25.8245   25.8541 C   0  0  0  0  0  0  0  0  0  0  0  0
  -11.9443  -24.4868   25.8057 N   0  0  0  0  0  0  0  0  0  0  0  0
  -11.8971  -23.8479   26.9905 C   0  0  0  0  0  0  0  0  0  0  0  0
  -14.1973  -22.2878   31.4740 C   0  0  0  0  0  0  0  0  0  0  0  0
  -14.4614  -22.4683   32.8078 C   0  0  0  0  0  0  0  0  0  0  0  0
  -13.5018  -22.8425   33.6516 N   0  0  0  0  0  0  0  0  0  0  0  0
   -8.6454  -25.1450   32.1977 H   0  0  0  0  0  0  0  0  0  0  0  0
   -9.5742  -25.4921   33.7208 H   0  0  0  0  0  0  0  0  0  0  0  0
   -9.3634  -23.8761   33.0496 H   0  0  0  0  0  0  0  0  0  0  0  0
  -11.1814  -26.4574   30.8982 H   0  0  0  0  0  0  0  0  0  0  0  0
  -10.5790  -26.9676   32.3972 H   0  0  0  0  0  0  0  0  0  0  0  0
   -9.5172  -26.2721   31.0247 H   0  0  0  0  0  0  0  0  0  0  0  0
  -10.8704  -22.4123   31.7487 H   0  0  0  0  0  0  0  0  0  0  0  0
  -13.4234  -22.8172   29.2385 H   0  0  0  0  0  0  0  0  0  0  0  0
  -12.3191  -24.5956   30.2045 H   0  0  0  0  0  0  0  0  0  0  0  0
  -10.7740  -23.7882   29.7967 H   0  0  0  0  0  0  0  0  0  0  0  0
  -11.9108  -26.5184   28.9779 H   0  0  0  0  0  0  0  0  0  0  0  0
  -12.0561  -26.3589   24.9171 H   0  0  0  0  0  0  0  0  0  0  0  0
  -11.8653  -22.7630   26.9367 H   0  0  0  0  0  0  0  0  0  0  0  0
  -15.0406  -22.1845   30.8098 H   0  0  0  0  0  0  0  0  0  0  0  0
  -15.4649  -22.4205   33.2142 H   0  0  0  0  0  0  0  0  0  0  0  0
  1  2  1  0
  2  3  1  0
  2  4  1  0
  4  5  2  0
  4  6  1  0
  6  7  2  0
  7  8  1  0
  8  9  1  0
  9 10  1  0
 10 11  1  0
 11 12  2  0
 12 13  1  0
 13 14  2  0
 14 15  1  0
 15 16  2  0
  8 17  2  0
 17 18  1  0
 18 19  2  0
 19  6  1  0
 16 11  1  0
  1 20  1  0
  1 21  1  0
  1 22  1  0
  3 23  1  0
  3 24  1  0
  3 25  1  0
  7 26  1  0
  9 27  1  0
 10 28  1  0
 10 29  1  0
 12 30  1  0
 14 31  1  0
 16 32  1  0
 17 33  1  0
 18 34  1  0
M  END
>  <Energy>  (177) 
161.12503166669268

>  <compound_id>  (177) 
34683

>  <target_id>  (177) 
1

>  <reference_id>  (177) 
82

>  <inspiration_ids>  (177) 
[82, 54]

>  <energy_score>  (177) 
114.70251959087233

>  <distance_score>  (177) 
4.047357765950047

>  <path>  (177) 
/opt/xchem-fragalysis-2/maxwin/BulkDock/SCRATCH/511015/C34683-P82/C34683-P82.minimised.mol

>  <scratch_subdir>  (177) 
/opt/xchem-fragalysis-2/maxwin/BulkDock/SCRATCH/511015/C34683-P82

>  <fragmenstein_runtime>  (177) 
7.178130865097046

>  <fragmenstein_outcome>  (177) 
too moved

>  <fragmenstein_mode>  (177) 
expansion

>  <fragmenstein_error>  (177) 


$$$$
C34683-P54
     RDKit          3D

 34 35  0  0  0  0  0  0  0  0999 V2000
  -14.2786  -28.7729   33.2395 C   0  0  0  0  0  0  0  0  0  0  0  0
  -13.2427  -29.2642   32.2686 N   0  0  0  0  0  0  0  0  0  0  0  0
  -13.6173  -30.5564   32.9164 C   0  0  0  0  0  0  0  0  0  0  0  0
  -13.5103  -28.7489   30.8767 C   0  0  0  0  0  0  0  0  0  0  0  0
  -14.1465  -29.2133   30.0017 O   0  0  0  0  0  0  0  0  0  0  0  0
  -12.8526  -27.4074   30.6517 C   0  0  0  0  0  0  0  0  0  0  0  0
  -13.3489  -26.6058   29.6267 C   0  0  0  0  0  0  0  0  0  0  0  0
  -12.8604  -25.3187   29.4772 C   0  0  0  0  0  0  0  0  0  0  0  0
  -13.3958  -24.4649   28.4897 N   0  0  0  0  0  0  0  0  0  0  0  0
  -12.6299  -24.3126   27.2239 C   0  0  0  0  0  0  0  0  0  0  0  0
  -11.2603  -23.8358   27.5393 C   0  0  0  0  0  0  0  0  0  0  0  0
  -11.0372  -22.5559   28.0026 C   0  0  0  0  0  0  0  0  0  0  0  0
   -9.9840  -22.2440   28.7704 N   0  0  0  0  0  0  0  0  0  0  0  0
   -9.1345  -23.2478   29.0330 C   0  0  0  0  0  0  0  0  0  0  0  0
   -9.2006  -24.4876   28.5395 N   0  0  0  0  0  0  0  0  0  0  0  0
  -10.2582  -24.7541   27.7677 C   0  0  0  0  0  0  0  0  0  0  0  0
  -11.8331  -24.9164   30.3375 C   0  0  0  0  0  0  0  0  0  0  0  0
  -11.3324  -25.7988   31.2721 C   0  0  0  0  0  0  0  0  0  0  0  0
  -11.8573  -27.0168   31.4933 N   0  0  0  0  0  0  0  0  0  0  0  0
  -15.3140  -29.0513   32.9846 H   0  0  0  0  0  0  0  0  0  0  0  0
  -14.0232  -28.8845   34.3051 H   0  0  0  0  0  0  0  0  0  0  0  0
  -14.2895  -27.6805   33.1066 H   0  0  0  0  0  0  0  0  0  0  0  0
  -13.0336  -31.2966   32.3505 H   0  0  0  0  0  0  0  0  0  0  0  0
  -14.6467  -30.9045   32.7348 H   0  0  0  0  0  0  0  0  0  0  0  0
  -13.2588  -30.6746   33.9497 H   0  0  0  0  0  0  0  0  0  0  0  0
  -14.1480  -26.9770   28.9928 H   0  0  0  0  0  0  0  0  0  0  0  0
  -14.3513  -24.7452   28.2602 H   0  0  0  0  0  0  0  0  0  0  0  0
  -13.1443  -23.5876   26.5832 H   0  0  0  0  0  0  0  0  0  0  0  0
  -12.6141  -25.2636   26.6772 H   0  0  0  0  0  0  0  0  0  0  0  0
  -11.7640  -21.7606   27.8735 H   0  0  0  0  0  0  0  0  0  0  0  0
   -8.3050  -23.0450   29.6990 H   0  0  0  0  0  0  0  0  0  0  0  0
  -10.3401  -25.7908   27.4542 H   0  0  0  0  0  0  0  0  0  0  0  0
  -11.4552  -23.9015   30.3276 H   0  0  0  0  0  0  0  0  0  0  0  0
  -10.5014  -25.5064   31.9078 H   0  0  0  0  0  0  0  0  0  0  0  0
  1  2  1  0
  2  3  1  0
  2  4  1  0
  4  5  2  0
  4  6  1  0
  6  7  2  0
  7  8  1  0
  8  9  1  0
  9 10  1  0
 10 11  1  0
 11 12  2  0
 12 13  1  0
 13 14  2  0
 14 15  1  0
 15 16  2  0
  8 17  2  0
 17 18  1  0
 18 19  2  0
 19  6  1  0
 16 11  1  0
  1 20  1  0
  1 21  1  0
  1 22  1  0
  3 23  1  0
  3 24  1  0
  3 25  1  0
  7 26  1  0
  9 27  1  0
 10 28  1  0
 10 29  1  0
 12 30  1  0
 14 31  1  0
 16 32  1  0
 17 33  1  0
 18 34  1  0
M  END
>  <Energy>  (178) 
125.56238263383425

>  <compound_id>  (178) 
34683

>  <target_id>  (178) 
1

>  <reference_id>  (178) 
54

>  <inspiration_ids>  (178) 
[82, 54]

>  <energy_score>  (178) 
73.81711410052162

>  <distance_score>  (178) 
2.504664482322465

>  <path>  (178) 
/opt/xchem-fragalysis-2/maxwin/BulkDock/SCRATCH/511015/C34683-P54/C34683-P54.minimised.mol

>  <scratch_subdir>  (178) 
/opt/xchem-fragalysis-2/maxwin/BulkDock/SCRATCH/511015/C34683-P54

>  <fragmenstein_runtime>  (178) 
3.0380728244781494

>  <fragmenstein_outcome>  (178) 
too moved

>  <fragmenstein_mode>  (178) 
expansion

>  <fragmenstein_error>  (178) 


$$$$
C34684-P82
     RDKit          3D

 24 25  0  0  0  0  0  0  0  0999 V2000
  -11.8626  -25.5949   29.7564 F   0  0  0  0  0  0  0  0  0  0  0  0
  -11.5505  -24.8947   30.8461 C   0  0  0  0  0  0  0  0  0  0  0  0
  -10.9832  -25.5835   31.9037 C   0  0  0  0  0  0  0  0  0  0  0  0
  -10.9806  -25.1221   33.1619 N   0  0  0  0  0  0  0  0  0  0  0  0
  -11.6206  -23.9505   33.3313 C   0  0  0  0  0  0  0  0  0  0  0  0
  -12.0412  -23.1244   32.2955 C   0  0  0  0  0  0  0  0  0  0  0  0
  -11.9244  -23.5616   30.9764 C   0  0  0  0  0  0  0  0  0  0  0  0
  -12.2606  -22.6930   29.9345 N   0  0  0  0  0  0  0  0  0  0  0  0
  -11.5795  -22.5763   28.6340 C   0  0  0  0  0  0  0  0  0  0  0  0
  -11.5078  -23.7852   27.8004 C   0  0  0  0  0  0  0  0  0  0  0  0
  -12.4533  -24.0561   26.8520 C   0  0  0  0  0  0  0  0  0  0  0  0
  -12.5307  -25.2241   26.2085 N   0  0  0  0  0  0  0  0  0  0  0  0
  -11.5958  -26.1248   26.5290 C   0  0  0  0  0  0  0  0  0  0  0  0
  -10.5678  -25.9435   27.3525 N   0  0  0  0  0  0  0  0  0  0  0  0
  -10.5417  -24.7516   27.9548 C   0  0  0  0  0  0  0  0  0  0  0  0
  -10.5829  -26.5817   31.7633 H   0  0  0  0  0  0  0  0  0  0  0  0
  -11.7831  -23.6570   34.3621 H   0  0  0  0  0  0  0  0  0  0  0  0
  -12.4668  -22.1583   32.5383 H   0  0  0  0  0  0  0  0  0  0  0  0
  -12.4863  -21.7780   30.2968 H   0  0  0  0  0  0  0  0  0  0  0  0
  -10.5937  -22.1424   28.7714 H   0  0  0  0  0  0  0  0  0  0  0  0
  -12.1113  -21.8068   28.0721 H   0  0  0  0  0  0  0  0  0  0  0  0
  -13.2198  -23.3432   26.5837 H   0  0  0  0  0  0  0  0  0  0  0  0
  -11.6688  -27.0933   26.0472 H   0  0  0  0  0  0  0  0  0  0  0  0
   -9.7423  -24.6565   28.6766 H   0  0  0  0  0  0  0  0  0  0  0  0
  1  2  1  0
  2  3  2  0
  3  4  1  0
  4  5  2  0
  5  6  1  0
  6  7  2  0
  7  8  1  0
  8  9  1  0
  9 10  1  0
 10 11  2  0
 11 12  1  0
 12 13  2  0
 13 14  1  0
 14 15  2  0
  7  2  1  0
 15 10  1  0
  3 16  1  0
  5 17  1  0
  6 18  1  0
  8 19  1  0
  9 20  1  0
  9 21  1  0
 11 22  1  0
 13 23  1  0
 15 24  1  0
M  END
>  <Energy>  (179) 
56.246858431035214

>  <compound_id>  (179) 
34684

>  <target_id>  (179) 
1

>  <reference_id>  (179) 
82

>  <inspiration_ids>  (179) 
[82, 54]

>  <energy_score>  (179) 
12.411254217679385

>  <distance_score>  (179) 
2.741172010844398

>  <path>  (179) 
/opt/xchem-fragalysis-2/maxwin/BulkDock/SCRATCH/511015/C34684-P82/C34684-P82.minimised.mol

>  <scratch_subdir>  (179) 
/opt/xchem-fragalysis-2/maxwin/BulkDock/SCRATCH/511015/C34684-P82

>  <fragmenstein_runtime>  (179) 
1.8852946758270264

>  <fragmenstein_outcome>  (179) 
too moved

>  <fragmenstein_mode>  (179) 
expansion

>  <fragmenstein_error>  (179) 


$$$$
C34684-P54
     RDKit          3D

 24 25  0  0  0  0  0  0  0  0999 V2000
  -13.1980  -26.6852   28.8316 F   0  0  0  0  0  0  0  0  0  0  0  0
  -12.4976  -25.9111   29.6583 C   0  0  0  0  0  0  0  0  0  0  0  0
  -11.6995  -26.4577   30.6392 C   0  0  0  0  0  0  0  0  0  0  0  0
  -10.9210  -25.7180   31.4558 N   0  0  0  0  0  0  0  0  0  0  0  0
  -10.9253  -24.3818   31.2526 C   0  0  0  0  0  0  0  0  0  0  0  0
  -11.7486  -23.7535   30.3310 C   0  0  0  0  0  0  0  0  0  0  0  0
  -12.5619  -24.5351   29.4973 C   0  0  0  0  0  0  0  0  0  0  0  0
  -13.3282  -23.9618   28.4350 N   0  0  0  0  0  0  0  0  0  0  0  0
  -12.6701  -24.0171   27.0856 C   0  0  0  0  0  0  0  0  0  0  0  0
  -11.2167  -23.7296   27.2432 C   0  0  0  0  0  0  0  0  0  0  0  0
  -10.8024  -22.4771   27.6439 C   0  0  0  0  0  0  0  0  0  0  0  0
   -9.7200  -22.3003   28.4150 N   0  0  0  0  0  0  0  0  0  0  0  0
   -9.0483  -23.4142   28.7457 C   0  0  0  0  0  0  0  0  0  0  0  0
   -9.2809  -24.6483   28.2807 N   0  0  0  0  0  0  0  0  0  0  0  0
  -10.3567  -24.7782   27.4996 C   0  0  0  0  0  0  0  0  0  0  0  0
  -11.6570  -27.5324   30.7796 H   0  0  0  0  0  0  0  0  0  0  0  0
  -10.2609  -23.8029   31.8885 H   0  0  0  0  0  0  0  0  0  0  0  0
  -11.7501  -22.6707   30.2599 H   0  0  0  0  0  0  0  0  0  0  0  0
  -14.1944  -24.5036   28.3505 H   0  0  0  0  0  0  0  0  0  0  0  0
  -13.1416  -23.2798   26.4271 H   0  0  0  0  0  0  0  0  0  0  0  0
  -12.8358  -25.0027   26.6332 H   0  0  0  0  0  0  0  0  0  0  0  0
  -11.4152  -21.5921   27.4947 H   0  0  0  0  0  0  0  0  0  0  0  0
   -8.2194  -23.3036   29.4347 H   0  0  0  0  0  0  0  0  0  0  0  0
  -10.5976  -25.8004   27.2233 H   0  0  0  0  0  0  0  0  0  0  0  0
  1  2  1  0
  2  3  2  0
  3  4  1  0
  4  5  2  0
  5  6  1  0
  6  7  2  0
  7  8  1  0
  8  9  1  0
  9 10  1  0
 10 11  2  0
 11 12  1  0
 12 13  2  0
 13 14  1  0
 14 15  2  0
  7  2  1  0
 15 10  1  0
  3 16  1  0
  5 17  1  0
  6 18  1  0
  8 19  1  0
  9 20  1  0
  9 21  1  0
 11 22  1  0
 13 23  1  0
 15 24  1  0
M  END
>  <Energy>  (180) 
57.724503713786476

>  <compound_id>  (180) 
34684

>  <target_id>  (180) 
1

>  <reference_id>  (180) 
54

>  <inspiration_ids>  (180) 
[82, 54]

>  <energy_score>  (180) 
13.888899500429943

>  <distance_score>  (180) 
1.8629656122332066

>  <path>  (180) 
/opt/xchem-fragalysis-2/maxwin/BulkDock/SCRATCH/511015/C34684-P54/C34684-P54.minimised.mol

>  <scratch_subdir>  (180) 
/opt/xchem-fragalysis-2/maxwin/BulkDock/SCRATCH/511015/C34684-P54

>  <fragmenstein_runtime>  (180) 
1.2617838382720947

>  <fragmenstein_outcome>  (180) 
too moved

>  <fragmenstein_mode>  (180) 
expansion

>  <fragmenstein_error>  (180) 


$$$$
C69300-P124
     RDKit          3D

 44 47  0  0  0  0  0  0  0  0999 V2000
    8.0108  -16.0110   27.6829 C   0  0  0  0  0  0  0  0  0  0  0  0
    8.2165  -14.3400   27.9053 C   0  0  0  0  0  0  0  0  0  0  0  0
    8.1055  -12.9172   26.9538 C   0  0  0  0  0  0  0  0  0  0  0  0
    9.3517  -12.1672   26.3598 N   0  0  0  0  0  0  0  0  0  0  0  0
    9.0495  -10.8495   25.6830 C   0  0  0  0  0  0  0  0  0  0  0  0
   10.1831  -10.1035   24.9338 C   0  0  0  0  0  0  0  0  0  0  0  0
   11.3976  -10.4578   24.3589 C   0  0  0  0  0  0  0  0  0  0  0  0
   11.8589   -9.3188   23.7237 N   0  0  0  0  0  0  0  0  0  0  0  0
   13.0571   -9.1238   22.9205 C   0  0  0  0  0  0  0  0  0  0  0  0
   12.8190   -8.5207   21.5219 C   0  0  0  0  0  0  0  0  0  0  0  0
   13.5548   -7.1915   21.5398 C   0  0  0  0  0  0  0  0  0  0  0  0
   14.6710   -7.4424   22.4483 N   0  0  0  0  0  0  0  0  0  0  0  0
   14.0634   -8.1642   23.5688 C   0  0  0  0  0  0  0  0  0  0  0  0
   10.9877   -8.3120   23.8899 N   0  0  0  0  0  0  0  0  0  0  0  0
    9.9768   -8.7646   24.6213 N   0  0  0  0  0  0  0  0  0  0  0  0
    8.4516  -14.0321   29.7129 C   0  0  0  0  0  0  0  0  0  0  0  0
    8.9742  -15.3980   30.5060 O   0  0  0  0  0  0  0  0  0  0  0  0
    9.5033  -16.5921   29.9394 C   0  0  0  0  0  0  0  0  0  0  0  0
   10.9908  -16.9611   29.8561 C   0  0  0  0  0  0  0  0  0  0  0  0
   11.5227  -18.0668   29.2092 C   0  0  0  0  0  0  0  0  0  0  0  0
   10.5488  -18.9282   28.9011 C   0  0  0  0  0  0  0  0  0  0  0  0
    9.1788  -18.4837   29.0606 C   0  0  0  0  0  0  0  0  0  0  0  0
    8.7294  -17.2124   28.9859 C   0  0  0  0  0  0  0  0  0  0  0  0
    7.7044  -16.2976   26.7309 H   0  0  0  0  0  0  0  0  0  0  0  0
    7.4454  -13.1391   26.1196 H   0  0  0  0  0  0  0  0  0  0  0  0
    7.5906  -12.1894   27.5922 H   0  0  0  0  0  0  0  0  0  0  0  0
    9.7437  -12.7919   25.6581 H   0  0  0  0  0  0  0  0  0  0  0  0
    8.2457  -11.0204   24.9575 H   0  0  0  0  0  0  0  0  0  0  0  0
    8.6653  -10.1679   26.4510 H   0  0  0  0  0  0  0  0  0  0  0  0
   11.9448  -11.3883   24.3282 H   0  0  0  0  0  0  0  0  0  0  0  0
   13.5109  -10.1160   22.7987 H   0  0  0  0  0  0  0  0  0  0  0  0
   11.7645   -8.3930   21.2639 H   0  0  0  0  0  0  0  0  0  0  0  0
   13.2672   -9.1830   20.7710 H   0  0  0  0  0  0  0  0  0  0  0  0
   12.9107   -6.3945   21.9299 H   0  0  0  0  0  0  0  0  0  0  0  0
   13.9021   -6.9017   20.5446 H   0  0  0  0  0  0  0  0  0  0  0  0
   15.0721   -6.5591   22.7665 H   0  0  0  0  0  0  0  0  0  0  0  0
   13.5802   -7.4554   24.2524 H   0  0  0  0  0  0  0  0  0  0  0  0
   14.8236   -8.7085   24.1381 H   0  0  0  0  0  0  0  0  0  0  0  0
    8.9273  -13.0315   29.9548 H   0  0  0  0  0  0  0  0  0  0  0  0
    7.6435  -13.5696   30.3300 H   0  0  0  0  0  0  0  0  0  0  0  0
   11.7578  -16.4145   30.3493 H   0  0  0  0  0  0  0  0  0  0  0  0
   12.5733  -18.3081   29.2023 H   0  0  0  0  0  0  0  0  0  0  0  0
   10.8314  -19.9614   28.7436 H   0  0  0  0  0  0  0  0  0  0  0  0
    8.6521  -19.0389   29.8552 H   0  0  0  0  0  0  0  0  0  0  0  0
  1  2  2  0
  2  3  1  0
  3  4  1  0
  4  5  1  0
  5  6  1  0
  6  7  2  0
  7  8  1  0
  8  9  1  0
  9 10  1  0
 10 11  1  0
 11 12  1  0
 12 13  1  0
  8 14  1  0
 14 15  2  0
  2 16  1  0
 16 17  1  0
 17 18  1  0
 18 19  2  0
 19 20  1  0
 20 21  2  0
 21 22  1  0
 22 23  2  0
 23  1  1  0
 15  6  1  0
 23 18  1  0
 13  9  1  0
  1 24  1  0
  3 25  1  0
  3 26  1  0
  4 27  1  0
  5 28  1  0
  5 29  1  0
  7 30  1  0
  9 31  1  0
 10 32  1  0
 10 33  1  0
 11 34  1  0
 11 35  1  0
 12 36  1  0
 13 37  1  0
 13 38  1  0
 16 39  1  0
 16 40  1  0
 19 41  1  0
 20 42  1  0
 21 43  1  0
 22 44  1  0
M  END
>  <Energy>  (181) 
343.35077688888765

>  <compound_id>  (181) 
69300

>  <target_id>  (181) 
1

>  <reference_id>  (181) 
124

>  <inspiration_ids>  (181) 
[89, 124]

>  <energy_score>  (181) 
279.37274393259884

>  <distance_score>  (181) 
10.113639629173953

>  <path>  (181) 
/opt/xchem-fragalysis-2/maxwin/BulkDock/SCRATCH/511015/C69300-P124/C69300-P124.minimised.mol

>  <scratch_subdir>  (181) 
/opt/xchem-fragalysis-2/maxwin/BulkDock/SCRATCH/511015/C69300-P124

>  <fragmenstein_runtime>  (181) 
21.158931732177734

>  <fragmenstein_outcome>  (181) 
too moved

>  <fragmenstein_mode>  (181) 
expansion

>  <fragmenstein_error>  (181) 


$$$$
C69300-P124
     RDKit          3D

 44 47  0  0  0  0  0  0  0  0999 V2000
    8.0108  -16.0110   27.6829 C   0  0  0  0  0  0  0  0  0  0  0  0
    8.2165  -14.3400   27.9053 C   0  0  0  0  0  0  0  0  0  0  0  0
    8.1055  -12.9172   26.9538 C   0  0  0  0  0  0  0  0  0  0  0  0
    9.3517  -12.1672   26.3598 N   0  0  0  0  0  0  0  0  0  0  0  0
    9.0495  -10.8495   25.6830 C   0  0  0  0  0  0  0  0  0  0  0  0
   10.1831  -10.1035   24.9338 C   0  0  0  0  0  0  0  0  0  0  0  0
   11.3976  -10.4578   24.3589 C   0  0  0  0  0  0  0  0  0  0  0  0
   11.8589   -9.3188   23.7237 N   0  0  0  0  0  0  0  0  0  0  0  0
   13.0571   -9.1238   22.9205 C   0  0  0  0  0  0  0  0  0  0  0  0
   12.8190   -8.5207   21.5219 C   0  0  0  0  0  0  0  0  0  0  0  0
   13.5548   -7.1915   21.5398 C   0  0  0  0  0  0  0  0  0  0  0  0
   14.6710   -7.4424   22.4483 N   0  0  0  0  0  0  0  0  0  0  0  0
   14.0634   -8.1642   23.5688 C   0  0  0  0  0  0  0  0  0  0  0  0
   10.9877   -8.3120   23.8899 N   0  0  0  0  0  0  0  0  0  0  0  0
    9.9768   -8.7646   24.6213 N   0  0  0  0  0  0  0  0  0  0  0  0
    8.4516  -14.0321   29.7129 C   0  0  0  0  0  0  0  0  0  0  0  0
    8.9742  -15.3980   30.5060 O   0  0  0  0  0  0  0  0  0  0  0  0
    9.5033  -16.5921   29.9394 C   0  0  0  0  0  0  0  0  0  0  0  0
   10.9908  -16.9611   29.8561 C   0  0  0  0  0  0  0  0  0  0  0  0
   11.5227  -18.0668   29.2092 C   0  0  0  0  0  0  0  0  0  0  0  0
   10.5488  -18.9282   28.9011 C   0  0  0  0  0  0  0  0  0  0  0  0
    9.1788  -18.4837   29.0606 C   0  0  0  0  0  0  0  0  0  0  0  0
    8.7294  -17.2124   28.9859 C   0  0  0  0  0  0  0  0  0  0  0  0
    7.7044  -16.2976   26.7309 H   0  0  0  0  0  0  0  0  0  0  0  0
    7.4454  -13.1391   26.1196 H   0  0  0  0  0  0  0  0  0  0  0  0
    7.5906  -12.1894   27.5922 H   0  0  0  0  0  0  0  0  0  0  0  0
    9.7437  -12.7919   25.6581 H   0  0  0  0  0  0  0  0  0  0  0  0
    8.2457  -11.0204   24.9575 H   0  0  0  0  0  0  0  0  0  0  0  0
    8.6653  -10.1679   26.4510 H   0  0  0  0  0  0  0  0  0  0  0  0
   11.9448  -11.3883   24.3282 H   0  0  0  0  0  0  0  0  0  0  0  0
   13.5109  -10.1160   22.7987 H   0  0  0  0  0  0  0  0  0  0  0  0
   11.7645   -8.3930   21.2639 H   0  0  0  0  0  0  0  0  0  0  0  0
   13.2672   -9.1830   20.7710 H   0  0  0  0  0  0  0  0  0  0  0  0
   12.9107   -6.3945   21.9299 H   0  0  0  0  0  0  0  0  0  0  0  0
   13.9021   -6.9017   20.5446 H   0  0  0  0  0  0  0  0  0  0  0  0
   15.0721   -6.5591   22.7665 H   0  0  0  0  0  0  0  0  0  0  0  0
   13.5802   -7.4554   24.2524 H   0  0  0  0  0  0  0  0  0  0  0  0
   14.8236   -8.7085   24.1381 H   0  0  0  0  0  0  0  0  0  0  0  0
    8.9273  -13.0315   29.9548 H   0  0  0  0  0  0  0  0  0  0  0  0
    7.6435  -13.5696   30.3300 H   0  0  0  0  0  0  0  0  0  0  0  0
   11.7578  -16.4145   30.3493 H   0  0  0  0  0  0  0  0  0  0  0  0
   12.5733  -18.3081   29.2023 H   0  0  0  0  0  0  0  0  0  0  0  0
   10.8314  -19.9614   28.7436 H   0  0  0  0  0  0  0  0  0  0  0  0
    8.6521  -19.0389   29.8552 H   0  0  0  0  0  0  0  0  0  0  0  0
  1  2  2  0
  2  3  1  0
  3  4  1  0
  4  5  1  0
  5  6  1  0
  6  7  2  0
  7  8  1  0
  8  9  1  0
  9 10  1  0
 10 11  1  0
 11 12  1  0
 12 13  1  0
  8 14  1  0
 14 15  2  0
  2 16  1  0
 16 17  1  0
 17 18  1  0
 18 19  2  0
 19 20  1  0
 20 21  2  0
 21 22  1  0
 22 23  2  0
 23  1  1  0
 15  6  1  0
 23 18  1  0
 13  9  1  0
  1 24  1  0
  3 25  1  0
  3 26  1  0
  4 27  1  0
  5 28  1  0
  5 29  1  0
  7 30  1  0
  9 31  1  0
 10 32  1  0
 10 33  1  0
 11 34  1  0
 11 35  1  0
 12 36  1  0
 13 37  1  0
 13 38  1  0
 16 39  1  0
 16 40  1  0
 19 41  1  0
 20 42  1  0
 21 43  1  0
 22 44  1  0
M  END
>  <Energy>  (182) 
343.35077688888765

>  <compound_id>  (182) 
69300

>  <target_id>  (182) 
1

>  <reference_id>  (182) 
124

>  <inspiration_ids>  (182) 
[89, 124]

>  <energy_score>  (182) 
279.37274393259884

>  <distance_score>  (182) 
10.113639629173953

>  <path>  (182) 
/opt/xchem-fragalysis-2/maxwin/BulkDock/SCRATCH/511015/C69300-P124/C69300-P124.minimised.mol

>  <scratch_subdir>  (182) 
/opt/xchem-fragalysis-2/maxwin/BulkDock/SCRATCH/511015/C69300-P124

>  <fragmenstein_runtime>  (182) 
22.61582899093628

>  <fragmenstein_outcome>  (182) 
too moved

>  <fragmenstein_mode>  (182) 
expansion

>  <fragmenstein_error>  (182) 


$$$$
C27266-P124
     RDKit          3D

 46 48  0  0  0  0  0  0  0  0999 V2000
    4.6400  -20.8877   31.5053 C   0  0  0  0  0  0  0  0  0  0  0  0
    5.4822  -19.5290   30.5157 C   0  0  0  0  0  0  0  0  0  0  0  0
    6.0041  -20.1717   29.2685 C   0  0  0  0  0  0  0  0  0  0  0  0
    5.3371  -19.4401   27.6877 C   0  0  0  0  0  0  0  0  0  0  0  0
    4.1873  -18.0175   28.0500 C   0  0  0  0  0  0  0  0  0  0  0  0
    3.6897  -17.2726   28.8808 C   0  0  0  0  0  0  0  0  0  0  0  0
    4.4854  -18.1221   30.0940 C   0  0  0  0  0  0  0  0  0  0  0  0
    2.6966  -17.2191   27.1345 C   0  0  0  0  0  0  0  0  0  0  0  0
    2.8337  -16.1692   26.1259 C   0  0  0  0  0  0  0  0  0  0  0  0
    3.9771  -14.9592   25.2794 C   0  0  0  0  0  0  0  0  0  0  0  0
    4.0316  -15.2035   24.0898 O   0  0  0  0  0  0  0  0  0  0  0  0
    4.7552  -13.8404   26.1507 N   0  0  0  0  0  0  0  0  0  0  0  0
    6.0185  -12.6501   25.6892 C   0  0  0  0  0  0  0  0  0  0  0  0
    7.6822  -12.3173   25.9474 C   0  0  0  0  0  0  0  0  0  0  0  0
    8.5475  -12.4576   24.6811 C   0  0  0  0  0  0  0  0  0  0  0  0
    7.9491  -10.9006   26.4507 N   0  0  0  0  0  0  0  0  0  0  0  0
    9.2991  -10.7163   27.0303 C   0  0  0  0  0  0  0  0  0  0  0  0
    9.7733   -9.3228   26.6381 C   0  0  0  0  0  0  0  0  0  0  0  0
    9.0977   -9.0924   25.3135 C   0  0  0  0  0  0  0  0  0  0  0  0
    7.7537   -9.7945   25.4881 C   0  0  0  0  0  0  0  0  0  0  0  0
    2.8053  -15.4641   27.3198 C   0  0  0  0  0  0  0  0  0  0  0  0
    4.1053  -16.1620   27.7356 O   0  0  0  0  0  0  0  0  0  0  0  0
    4.3225  -21.6629   30.7946 H   0  0  0  0  0  0  0  0  0  0  0  0
    3.8068  -20.4640   32.0919 H   0  0  0  0  0  0  0  0  0  0  0  0
    5.1487  -21.5403   32.1622 H   0  0  0  0  0  0  0  0  0  0  0  0
    5.6405  -21.2363   29.2332 H   0  0  0  0  0  0  0  0  0  0  0  0
    4.9868  -20.1666   26.9284 H   0  0  0  0  0  0  0  0  0  0  0  0
    4.7753  -17.3141   30.7810 H   0  0  0  0  0  0  0  0  0  0  0  0
    2.6444  -18.1408   26.5857 H   0  0  0  0  0  0  0  0  0  0  0  0
    4.4181  -13.8549   27.0955 H   0  0  0  0  0  0  0  0  0  0  0  0
    5.7771  -12.0396   26.5711 H   0  0  0  0  0  0  0  0  0  0  0  0
    5.7781  -12.0341   24.8378 H   0  0  0  0  0  0  0  0  0  0  0  0
    8.0074  -13.0143   26.7250 H   0  0  0  0  0  0  0  0  0  0  0  0
    9.5210  -11.9638   24.7229 H   0  0  0  0  0  0  0  0  0  0  0  0
    8.7838  -13.5013   24.5025 H   0  0  0  0  0  0  0  0  0  0  0  0
    8.0074  -12.0655   23.8268 H   0  0  0  0  0  0  0  0  0  0  0  0
    9.2546  -10.8196   28.1197 H   0  0  0  0  0  0  0  0  0  0  0  0
   10.0222  -11.4562   26.6727 H   0  0  0  0  0  0  0  0  0  0  0  0
   10.8629   -9.2528   26.5726 H   0  0  0  0  0  0  0  0  0  0  0  0
    9.4238   -8.5871   27.3725 H   0  0  0  0  0  0  0  0  0  0  0  0
    9.6819   -9.5558   24.5121 H   0  0  0  0  0  0  0  0  0  0  0  0
    8.9932   -8.0248   25.1098 H   0  0  0  0  0  0  0  0  0  0  0  0
    7.3234  -10.1092   24.5391 H   0  0  0  0  0  0  0  0  0  0  0  0
    7.0427   -9.0910   25.9381 H   0  0  0  0  0  0  0  0  0  0  0  0
    1.8679  -15.5538   27.9264 H   0  0  0  0  0  0  0  0  0  0  0  0
    2.7801  -14.4099   27.0908 H   0  0  0  0  0  0  0  0  0  0  0  0
  1  2  1  0
  2  3  2  0
  3  4  1  0
  4  5  2  0
  5  6  1  0
  6  7  2  0
  6  8  1  0
  8  9  2  0
  9 10  1  0
 10 11  2  0
 10 12  1  0
 12 13  1  0
 13 14  1  0
 14 15  1  0
 14 16  1  0
 16 17  1  0
 17 18  1  0
 18 19  1  0
 19 20  1  0
  9 21  1  0
 21 22  1  0
  7  2  1  0
 20 16  1  0
 22  5  1  0
  1 23  1  0
  1 24  1  0
  1 25  1  0
  3 26  1  0
  4 27  1  0
  7 28  1  0
  8 29  1  0
 12 30  1  0
 13 31  1  0
 13 32  1  0
 14 33  1  0
 15 34  1  0
 15 35  1  0
 15 36  1  0
 17 37  1  0
 17 38  1  0
 18 39  1  0
 18 40  1  0
 19 41  1  0
 19 42  1  0
 20 43  1  0
 20 44  1  0
 21 45  1  0
 21 46  1  0
M  END
>  <Energy>  (183) 
999.38204663204931

>  <compound_id>  (183) 
27266

>  <target_id>  (183) 
1

>  <reference_id>  (183) 
124

>  <inspiration_ids>  (183) 
[89, 124]

>  <energy_score>  (183) 
939.8203864897214

>  <distance_score>  (183) 
10.759819335477363

>  <path>  (183) 
/opt/xchem-fragalysis-2/maxwin/BulkDock/SCRATCH/511015/C27266-P124/C27266-P124.minimised.mol

>  <scratch_subdir>  (183) 
/opt/xchem-fragalysis-2/maxwin/BulkDock/SCRATCH/511015/C27266-P124

>  <fragmenstein_runtime>  (183) 
19.304564476013184

>  <fragmenstein_outcome>  (183) 
too moved

>  <fragmenstein_mode>  (183) 
expansion

>  <fragmenstein_error>  (183) 


$$$$
C27267-P124
     RDKit          3D

 46 48  0  0  0  0  0  0  0  0999 V2000
    2.0573  -14.5211   27.2235 C   0  0  0  0  0  0  0  0  0  0  0  0
    3.6091  -14.3567   26.9072 C   0  0  0  0  0  0  0  0  0  0  0  0
    3.7399  -14.9823   25.7651 C   0  0  0  0  0  0  0  0  0  0  0  0
    4.8397  -14.3939   25.3186 C   0  0  0  0  0  0  0  0  0  0  0  0
    5.8898  -13.1037   25.8524 C   0  0  0  0  0  0  0  0  0  0  0  0
    5.9128  -12.5776   27.0624 C   0  0  0  0  0  0  0  0  0  0  0  0
    4.8107  -13.2276   27.6002 C   0  0  0  0  0  0  0  0  0  0  0  0
    6.8973  -11.5894   27.5385 C   0  0  0  0  0  0  0  0  0  0  0  0
    7.7932  -11.0703   26.6573 C   0  0  0  0  0  0  0  0  0  0  0  0
    9.0079  -10.1799   27.0817 C   0  0  0  0  0  0  0  0  0  0  0  0
    9.2722  -10.2451   28.2520 O   0  0  0  0  0  0  0  0  0  0  0  0
    9.6937   -9.4846   25.9840 N   0  0  0  0  0  0  0  0  0  0  0  0
   10.9849   -8.7257   25.9591 C   0  0  0  0  0  0  0  0  0  0  0  0
   11.2526   -7.7233   24.7736 C   0  0  0  0  0  0  0  0  0  0  0  0
   12.7532   -7.3262   24.5412 C   0  0  0  0  0  0  0  0  0  0  0  0
   13.0193   -6.5794   23.2926 N   0  0  0  0  0  0  0  0  0  0  0  0
   12.9556   -5.1147   23.4325 C   0  0  0  0  0  0  0  0  0  0  0  0
   13.5316   -4.6286   22.1075 C   0  0  0  0  0  0  0  0  0  0  0  0
   14.5849   -5.6671   21.7518 C   0  0  0  0  0  0  0  0  0  0  0  0
   14.3669   -6.8063   22.7467 C   0  0  0  0  0  0  0  0  0  0  0  0
    7.6866  -11.5350   25.2500 C   0  0  0  0  0  0  0  0  0  0  0  0
    6.9471  -12.7410   25.0305 O   0  0  0  0  0  0  0  0  0  0  0  0
    1.8421  -15.4690   27.7187 H   0  0  0  0  0  0  0  0  0  0  0  0
    1.6235  -13.6591   27.7390 H   0  0  0  0  0  0  0  0  0  0  0  0
    1.4830  -14.5383   26.2832 H   0  0  0  0  0  0  0  0  0  0  0  0
    3.1220  -15.7043   25.2686 H   0  0  0  0  0  0  0  0  0  0  0  0
    5.0336  -14.9905   24.4184 H   0  0  0  0  0  0  0  0  0  0  0  0
    4.6486  -12.7028   28.5338 H   0  0  0  0  0  0  0  0  0  0  0  0
    6.9144  -11.3404   28.5939 H   0  0  0  0  0  0  0  0  0  0  0  0
    9.2396   -9.7132   25.1133 H   0  0  0  0  0  0  0  0  0  0  0  0
   11.7603   -9.5000   25.9477 H   0  0  0  0  0  0  0  0  0  0  0  0
   11.0719   -8.2041   26.9183 H   0  0  0  0  0  0  0  0  0  0  0  0
   10.8794   -8.1909   23.8598 H   0  0  0  0  0  0  0  0  0  0  0  0
   10.6695   -6.8233   24.9803 H   0  0  0  0  0  0  0  0  0  0  0  0
   13.1366   -6.7908   25.4184 H   0  0  0  0  0  0  0  0  0  0  0  0
   13.3063   -8.2739   24.4962 H   0  0  0  0  0  0  0  0  0  0  0  0
   13.5845   -4.7670   24.2624 H   0  0  0  0  0  0  0  0  0  0  0  0
   11.9429   -4.7443   23.5950 H   0  0  0  0  0  0  0  0  0  0  0  0
   13.9599   -3.6255   22.1894 H   0  0  0  0  0  0  0  0  0  0  0  0
   12.7542   -4.6077   21.3344 H   0  0  0  0  0  0  0  0  0  0  0  0
   15.5957   -5.2570   21.8497 H   0  0  0  0  0  0  0  0  0  0  0  0
   14.4570   -6.0004   20.7176 H   0  0  0  0  0  0  0  0  0  0  0  0
   15.1280   -6.7551   23.5361 H   0  0  0  0  0  0  0  0  0  0  0  0
   14.4428   -7.7824   22.2568 H   0  0  0  0  0  0  0  0  0  0  0  0
    8.6844  -11.7438   24.8504 H   0  0  0  0  0  0  0  0  0  0  0  0
    7.2352  -10.7513   24.6336 H   0  0  0  0  0  0  0  0  0  0  0  0
  1  2  1  0
  2  3  2  0
  3  4  1  0
  4  5  2  0
  5  6  1  0
  6  7  2  0
  6  8  1  0
  8  9  2  0
  9 10  1  0
 10 11  2  0
 10 12  1  0
 12 13  1  0
 13 14  1  0
 14 15  1  0
 15 16  1  0
 16 17  1  0
 17 18  1  0
 18 19  1  0
 19 20  1  0
  9 21  1  0
 21 22  1  0
  7  2  1  0
 20 16  1  0
 22  5  1  0
  1 23  1  0
  1 24  1  0
  1 25  1  0
  3 26  1  0
  4 27  1  0
  7 28  1  0
  8 29  1  0
 12 30  1  0
 13 31  1  0
 13 32  1  0
 14 33  1  0
 14 34  1  0
 15 35  1  0
 15 36  1  0
 17 37  1  0
 17 38  1  0
 18 39  1  0
 18 40  1  0
 19 41  1  0
 19 42  1  0
 20 43  1  0
 20 44  1  0
 21 45  1  0
 21 46  1  0
M  END
>  <Energy>  (184) 
155.64306294482256

>  <compound_id>  (184) 
27267

>  <target_id>  (184) 
1

>  <reference_id>  (184) 
124

>  <inspiration_ids>  (184) 
[89, 124]

>  <energy_score>  (184) 
117.45218908541443

>  <distance_score>  (184) 
8.51104708476944

>  <path>  (184) 
/opt/xchem-fragalysis-2/maxwin/BulkDock/SCRATCH/511015/C27267-P124/C27267-P124.minimised.mol

>  <scratch_subdir>  (184) 
/opt/xchem-fragalysis-2/maxwin/BulkDock/SCRATCH/511015/C27267-P124

>  <fragmenstein_runtime>  (184) 
20.841548442840576

>  <fragmenstein_outcome>  (184) 
too moved

>  <fragmenstein_mode>  (184) 
expansion

>  <fragmenstein_error>  (184) 


$$$$
C27278-P124
     RDKit          3D

 47 49  0  0  0  0  0  0  0  0999 V2000
    4.0660  -17.5479   29.8796 C   0  0  0  0  0  0  0  0  0  0  0  0
    3.9218  -17.1341   28.4808 O   0  0  0  0  0  0  0  0  0  0  0  0
    2.9316  -16.9189   27.5246 C   0  0  0  0  0  0  0  0  0  0  0  0
    2.9096  -17.9370   26.5426 C   0  0  0  0  0  0  0  0  0  0  0  0
    3.0784  -17.8688   25.2022 C   0  0  0  0  0  0  0  0  0  0  0  0
    3.3764  -16.6216   24.9001 C   0  0  0  0  0  0  0  0  0  0  0  0
    3.3214  -15.5781   25.8734 C   0  0  0  0  0  0  0  0  0  0  0  0
    2.7991  -15.6863   27.1037 C   0  0  0  0  0  0  0  0  0  0  0  0
    3.4321  -14.3196   25.2983 C   0  0  0  0  0  0  0  0  0  0  0  0
    4.7561  -14.3483   25.2530 C   0  0  0  0  0  0  0  0  0  0  0  0
    5.7892  -13.0430   26.1200 C   0  0  0  0  0  0  0  0  0  0  0  0
    5.4064  -12.9073   27.2519 O   0  0  0  0  0  0  0  0  0  0  0  0
    6.9421  -12.4365   25.4270 N   0  0  0  0  0  0  0  0  0  0  0  0
    8.0627  -11.5348   25.9488 C   0  0  0  0  0  0  0  0  0  0  0  0
    7.5515  -10.5987   27.0464 C   0  0  0  0  0  0  0  0  0  0  0  0
    8.8862  -10.7123   24.8856 C   0  0  0  0  0  0  0  0  0  0  0  0
   10.1120   -9.9519   25.2606 N   0  0  0  0  0  0  0  0  0  0  0  0
   11.2627  -10.1579   24.3545 C   0  0  0  0  0  0  0  0  0  0  0  0
   11.8672   -8.7933   24.0361 C   0  0  0  0  0  0  0  0  0  0  0  0
   11.3047   -7.9028   25.1190 C   0  0  0  0  0  0  0  0  0  0  0  0
    9.9216   -8.4931   25.3664 C   0  0  0  0  0  0  0  0  0  0  0  0
    4.9234  -15.6387   24.0106 C   0  0  0  0  0  0  0  0  0  0  0  0
    3.7084  -16.2588   23.6758 O   0  0  0  0  0  0  0  0  0  0  0  0
    4.6853  -16.8916   30.4804 H   0  0  0  0  0  0  0  0  0  0  0  0
    3.0852  -17.5209   30.3656 H   0  0  0  0  0  0  0  0  0  0  0  0
    4.6310  -18.4529   30.0610 H   0  0  0  0  0  0  0  0  0  0  0  0
    3.2945  -18.9074   26.8376 H   0  0  0  0  0  0  0  0  0  0  0  0
    3.1346  -18.7400   24.5782 H   0  0  0  0  0  0  0  0  0  0  0  0
    2.3510  -14.8785   27.6235 H   0  0  0  0  0  0  0  0  0  0  0  0
    2.5369  -13.7982   25.5620 H   0  0  0  0  0  0  0  0  0  0  0  0
    6.9215  -12.7017   24.4641 H   0  0  0  0  0  0  0  0  0  0  0  0
    8.7572  -12.2421   26.4192 H   0  0  0  0  0  0  0  0  0  0  0  0
    7.0692  -11.1531   27.8560 H   0  0  0  0  0  0  0  0  0  0  0  0
    6.8284   -9.8800   26.6502 H   0  0  0  0  0  0  0  0  0  0  0  0
    8.3742  -10.0373   27.4998 H   0  0  0  0  0  0  0  0  0  0  0  0
    8.1615  -10.0352   24.4249 H   0  0  0  0  0  0  0  0  0  0  0  0
    9.1830  -11.4966   24.1808 H   0  0  0  0  0  0  0  0  0  0  0  0
   11.0152  -10.6878   23.4333 H   0  0  0  0  0  0  0  0  0  0  0  0
   11.9988  -10.7736   24.8843 H   0  0  0  0  0  0  0  0  0  0  0  0
   11.5349   -8.4517   23.0513 H   0  0  0  0  0  0  0  0  0  0  0  0
   12.9610   -8.8097   24.0409 H   0  0  0  0  0  0  0  0  0  0  0  0
   11.9152   -7.9883   26.0267 H   0  0  0  0  0  0  0  0  0  0  0  0
   11.2781   -6.8495   24.8321 H   0  0  0  0  0  0  0  0  0  0  0  0
    9.5455   -8.2147   26.3554 H   0  0  0  0  0  0  0  0  0  0  0  0
    9.2185   -8.1157   24.6227 H   0  0  0  0  0  0  0  0  0  0  0  0
    5.7188  -16.3589   24.1684 H   0  0  0  0  0  0  0  0  0  0  0  0
    5.0967  -15.4763   22.9765 H   0  0  0  0  0  0  0  0  0  0  0  0
  1  2  1  0
  2  3  1  0
  3  4  2  0
  4  5  1  0
  5  6  2  0
  6  7  1  0
  7  8  2  0
  7  9  1  0
  9 10  2  0
 10 11  1  0
 11 12  2  0
 11 13  1  0
 13 14  1  0
 14 15  1  0
 14 16  1  0
 16 17  1  0
 17 18  1  0
 18 19  1  0
 19 20  1  0
 20 21  1  0
 10 22  1  0
 22 23  1  0
  8  3  1  0
 21 17  1  0
 23  6  1  0
  1 24  1  0
  1 25  1  0
  1 26  1  0
  4 27  1  0
  5 28  1  0
  8 29  1  0
  9 30  1  0
 13 31  1  0
 14 32  1  0
 15 33  1  0
 15 34  1  0
 15 35  1  0
 16 36  1  0
 16 37  1  0
 18 38  1  0
 18 39  1  0
 19 40  1  0
 19 41  1  0
 20 42  1  0
 20 43  1  0
 21 44  1  0
 21 45  1  0
 22 46  1  0
 22 47  1  0
M  END
>  <Energy>  (185) 
305.85187585984642

>  <compound_id>  (185) 
27278

>  <target_id>  (185) 
1

>  <reference_id>  (185) 
124

>  <inspiration_ids>  (185) 
[89, 124]

>  <energy_score>  (185) 
247.7597296741552

>  <distance_score>  (185) 
9.978222071775274

>  <path>  (185) 
/opt/xchem-fragalysis-2/maxwin/BulkDock/SCRATCH/511015/C27278-P124/C27278-P124.minimised.mol

>  <scratch_subdir>  (185) 
/opt/xchem-fragalysis-2/maxwin/BulkDock/SCRATCH/511015/C27278-P124

>  <fragmenstein_runtime>  (185) 
26.89118456840515

>  <fragmenstein_outcome>  (185) 
too moved

>  <fragmenstein_mode>  (185) 
expansion

>  <fragmenstein_error>  (185) 


$$$$
C27293-P124
     RDKit          3D

 50 52  0  0  0  0  0  0  0  0999 V2000
    4.4115  -22.0064   30.2604 C   0  0  0  0  0  0  0  0  0  0  0  0
    2.8801  -21.5413   30.6657 O   0  0  0  0  0  0  0  0  0  0  0  0
    2.6400  -20.3209   31.6244 C   0  0  0  0  0  0  0  0  0  0  0  0
    4.0378  -20.0521   31.9099 C   0  0  0  0  0  0  0  0  0  0  0  0
    4.8237  -18.8987   30.7912 C   0  0  0  0  0  0  0  0  0  0  0  0
    3.7601  -17.6667   30.1073 C   0  0  0  0  0  0  0  0  0  0  0  0
    2.0431  -17.5552   30.4517 C   0  0  0  0  0  0  0  0  0  0  0  0
    1.6054  -19.1462   30.9332 C   0  0  0  0  0  0  0  0  0  0  0  0
    1.0182  -16.5646   29.2873 C   0  0  0  0  0  0  0  0  0  0  0  0
    1.5419  -15.9915   28.0507 C   0  0  0  0  0  0  0  0  0  0  0  0
    1.2946  -14.2943   27.4939 C   0  0  0  0  0  0  0  0  0  0  0  0
    0.5302  -13.7195   28.2460 O   0  0  0  0  0  0  0  0  0  0  0  0
    2.1149  -13.6982   26.2447 N   0  0  0  0  0  0  0  0  0  0  0  0
    3.4128  -13.2240   26.6621 C   0  0  0  0  0  0  0  0  0  0  0  0
    2.0715  -12.1759   25.5429 C   0  0  0  0  0  0  0  0  0  0  0  0
    3.3324  -11.0153   25.0762 C   0  0  0  0  0  0  0  0  0  0  0  0
    4.0029  -10.1022   26.1884 C   0  0  0  0  0  0  0  0  0  0  0  0
    5.0702   -9.1166   25.9881 N   0  0  0  0  0  0  0  0  0  0  0  0
    6.4144   -9.5549   25.6543 C   0  0  0  0  0  0  0  0  0  0  0  0
    7.2015   -8.2501   25.5182 C   0  0  0  0  0  0  0  0  0  0  0  0
    6.1667   -7.1656   25.2191 C   0  0  0  0  0  0  0  0  0  0  0  0
    4.7976   -7.8540   25.3201 C   0  0  0  0  0  0  0  0  0  0  0  0
    2.9063  -16.6158   27.5961 C   0  0  0  0  0  0  0  0  0  0  0  0
    3.9403  -17.1948   28.6684 O   0  0  0  0  0  0  0  0  0  0  0  0
    4.8374  -22.4765   31.1250 H   0  0  0  0  0  0  0  0  0  0  0  0
    4.4204  -22.5678   29.3149 H   0  0  0  0  0  0  0  0  0  0  0  0
    5.0566  -21.2060   29.9374 H   0  0  0  0  0  0  0  0  0  0  0  0
    4.5101  -20.9711   32.2587 H   0  0  0  0  0  0  0  0  0  0  0  0
    5.8333  -19.1643   30.5248 H   0  0  0  0  0  0  0  0  0  0  0  0
    0.5942  -19.4606   30.6504 H   0  0  0  0  0  0  0  0  0  0  0  0
    0.2083  -16.0996   29.8437 H   0  0  0  0  0  0  0  0  0  0  0  0
    3.9611  -14.0817   27.0141 H   0  0  0  0  0  0  0  0  0  0  0  0
    4.0856  -13.0180   25.8295 H   0  0  0  0  0  0  0  0  0  0  0  0
    3.3673  -12.4265   27.4092 H   0  0  0  0  0  0  0  0  0  0  0  0
    1.3828  -11.6112   26.1873 H   0  0  0  0  0  0  0  0  0  0  0  0
    1.5354  -12.3845   24.6076 H   0  0  0  0  0  0  0  0  0  0  0  0
    2.8107  -10.3342   24.3906 H   0  0  0  0  0  0  0  0  0  0  0  0
    4.0912  -11.5215   24.4827 H   0  0  0  0  0  0  0  0  0  0  0  0
    3.1736   -9.5811   26.6851 H   0  0  0  0  0  0  0  0  0  0  0  0
    4.4004  -10.7691   26.9576 H   0  0  0  0  0  0  0  0  0  0  0  0
    6.4420  -10.1589   24.7443 H   0  0  0  0  0  0  0  0  0  0  0  0
    6.8410  -10.1679   26.4561 H   0  0  0  0  0  0  0  0  0  0  0  0
    7.7022   -8.0168   26.4661 H   0  0  0  0  0  0  0  0  0  0  0  0
    7.9769   -8.3172   24.7531 H   0  0  0  0  0  0  0  0  0  0  0  0
    6.3204   -6.7060   24.2382 H   0  0  0  0  0  0  0  0  0  0  0  0
    6.2480   -6.3661   25.9651 H   0  0  0  0  0  0  0  0  0  0  0  0
    4.3264   -7.9920   24.3437 H   0  0  0  0  0  0  0  0  0  0  0  0
    4.1146   -7.2393   25.9170 H   0  0  0  0  0  0  0  0  0  0  0  0
    2.7429  -17.4326   26.9008 H   0  0  0  0  0  0  0  0  0  0  0  0
    3.4683  -15.8869   27.0338 H   0  0  0  0  0  0  0  0  0  0  0  0
  1  2  1  0
  2  3  1  0
  3  4  2  0
  4  5  1  0
  5  6  2  0
  6  7  1  0
  7  8  2  0
  7  9  1  0
  9 10  2  0
 10 11  1  0
 11 12  2  0
 11 13  1  0
 13 14  1  0
 13 15  1  0
 15 16  1  0
 16 17  1  0
 17 18  1  0
 18 19  1  0
 19 20  1  0
 20 21  1  0
 21 22  1  0
 10 23  1  0
 23 24  1  0
  8  3  1  0
 22 18  1  0
 24  6  1  0
  1 25  1  0
  1 26  1  0
  1 27  1  0
  4 28  1  0
  5 29  1  0
  8 30  1  0
  9 31  1  0
 14 32  1  0
 14 33  1  0
 14 34  1  0
 15 35  1  0
 15 36  1  0
 16 37  1  0
 16 38  1  0
 17 39  1  0
 17 40  1  0
 19 41  1  0
 19 42  1  0
 20 43  1  0
 20 44  1  0
 21 45  1  0
 21 46  1  0
 22 47  1  0
 22 48  1  0
 23 49  1  0
 23 50  1  0
M  END
>  <Energy>  (186) 
547.79748684251399

>  <compound_id>  (186) 
27293

>  <target_id>  (186) 
1

>  <reference_id>  (186) 
124

>  <inspiration_ids>  (186) 
[89, 124]

>  <energy_score>  (186) 
484.45742500054934

>  <distance_score>  (186) 
11.06853723189849

>  <path>  (186) 
/opt/xchem-fragalysis-2/maxwin/BulkDock/SCRATCH/511015/C27293-P124/C27293-P124.minimised.mol

>  <scratch_subdir>  (186) 
/opt/xchem-fragalysis-2/maxwin/BulkDock/SCRATCH/511015/C27293-P124

>  <fragmenstein_runtime>  (186) 
22.353986978530884

>  <fragmenstein_outcome>  (186) 
too moved

>  <fragmenstein_mode>  (186) 
expansion

>  <fragmenstein_error>  (186) 


$$$$
C27300-P124
     RDKit          3D

 47 49  0  0  0  0  0  0  0  0999 V2000
   13.0599  -17.8467   28.7082 C   0  0  0  0  0  0  0  0  0  0  0  0
   13.3125  -16.5328   28.2158 O   0  0  0  0  0  0  0  0  0  0  0  0
   13.4331  -16.3643   26.8610 C   0  0  0  0  0  0  0  0  0  0  0  0
   13.5150  -17.4389   25.9737 C   0  0  0  0  0  0  0  0  0  0  0  0
   13.6578  -17.1965   24.6158 C   0  0  0  0  0  0  0  0  0  0  0  0
   13.6994  -15.8844   24.1379 C   0  0  0  0  0  0  0  0  0  0  0  0
   13.5593  -14.7845   24.9916 C   0  0  0  0  0  0  0  0  0  0  0  0
   13.4758  -15.0310   26.3639 C   0  0  0  0  0  0  0  0  0  0  0  0
   13.4140  -13.9936   27.2580 O   0  0  0  0  0  0  0  0  0  0  0  0
   13.6225  -12.6390   26.7866 C   0  0  0  0  0  0  0  0  0  0  0  0
   13.4835  -12.3652   25.2986 C   0  0  0  0  0  0  0  0  0  0  0  0
   13.0995  -10.9171   24.9061 C   0  0  0  0  0  0  0  0  0  0  0  0
   12.2237  -10.4508   25.5795 O   0  0  0  0  0  0  0  0  0  0  0  0
   13.8001  -10.3741   23.7611 N   0  0  0  0  0  0  0  0  0  0  0  0
   13.5896   -9.1064   22.9933 C   0  0  0  0  0  0  0  0  0  0  0  0
   14.7917   -8.0988   22.7122 C   0  0  0  0  0  0  0  0  0  0  0  0
   15.2628   -7.4296   24.0082 C   0  0  0  0  0  0  0  0  0  0  0  0
   14.4908   -7.1014   21.6416 N   0  0  0  0  0  0  0  0  0  0  0  0
   13.6939   -5.9278   22.0177 C   0  0  0  0  0  0  0  0  0  0  0  0
   13.8618   -4.9957   20.8259 C   0  0  0  0  0  0  0  0  0  0  0  0
   15.3081   -5.1967   20.4162 C   0  0  0  0  0  0  0  0  0  0  0  0
   15.6887   -6.5729   20.9619 C   0  0  0  0  0  0  0  0  0  0  0  0
   13.4462  -13.4100   24.4539 C   0  0  0  0  0  0  0  0  0  0  0  0
   12.1629  -18.2813   28.2545 H   0  0  0  0  0  0  0  0  0  0  0  0
   13.9323  -18.4913   28.5612 H   0  0  0  0  0  0  0  0  0  0  0  0
   12.8830  -17.7679   29.7851 H   0  0  0  0  0  0  0  0  0  0  0  0
   13.4760  -18.4721   26.3021 H   0  0  0  0  0  0  0  0  0  0  0  0
   13.7270  -18.0325   23.9226 H   0  0  0  0  0  0  0  0  0  0  0  0
   13.8562  -15.7390   23.0731 H   0  0  0  0  0  0  0  0  0  0  0  0
   12.9244  -12.0180   27.3572 H   0  0  0  0  0  0  0  0  0  0  0  0
   14.6320  -12.3474   27.1003 H   0  0  0  0  0  0  0  0  0  0  0  0
   14.5398  -11.0132   23.4924 H   0  0  0  0  0  0  0  0  0  0  0  0
   12.7736   -8.5677   23.4891 H   0  0  0  0  0  0  0  0  0  0  0  0
   13.2056   -9.4454   22.0235 H   0  0  0  0  0  0  0  0  0  0  0  0
   15.6111   -8.7320   22.3451 H   0  0  0  0  0  0  0  0  0  0  0  0
   14.4454   -6.9146   24.5235 H   0  0  0  0  0  0  0  0  0  0  0  0
   16.0747   -6.7161   23.8384 H   0  0  0  0  0  0  0  0  0  0  0  0
   15.6452   -8.1895   24.6993 H   0  0  0  0  0  0  0  0  0  0  0  0
   12.6430   -6.1846   22.1811 H   0  0  0  0  0  0  0  0  0  0  0  0
   14.0780   -5.4216   22.9096 H   0  0  0  0  0  0  0  0  0  0  0  0
   13.6501   -3.9539   21.0822 H   0  0  0  0  0  0  0  0  0  0  0  0
   13.1891   -5.2809   20.0108 H   0  0  0  0  0  0  0  0  0  0  0  0
   15.9370   -4.4280   20.8809 H   0  0  0  0  0  0  0  0  0  0  0  0
   15.4381   -5.1219   19.3334 H   0  0  0  0  0  0  0  0  0  0  0  0
   15.9846   -7.2470   20.1512 H   0  0  0  0  0  0  0  0  0  0  0  0
   16.5450   -6.4667   21.6371 H   0  0  0  0  0  0  0  0  0  0  0  0
   13.2530  -13.2843   23.3955 H   0  0  0  0  0  0  0  0  0  0  0  0
  1  2  1  0
  2  3  1  0
  3  4  2  0
  4  5  1  0
  5  6  2  0
  6  7  1  0
  7  8  2  0
  8  9  1  0
  9 10  1  0
 10 11  1  0
 11 12  1  0
 12 13  2  0
 12 14  1  0
 14 15  1  0
 15 16  1  0
 16 17  1  0
 16 18  1  0
 18 19  1  0
 19 20  1  0
 20 21  1  0
 21 22  1  0
 11 23  2  0
  8  3  1  0
 22 18  1  0
 23  7  1  0
  1 24  1  0
  1 25  1  0
  1 26  1  0
  4 27  1  0
  5 28  1  0
  6 29  1  0
 10 30  1  0
 10 31  1  0
 14 32  1  0
 15 33  1  0
 15 34  1  0
 16 35  1  0
 17 36  1  0
 17 37  1  0
 17 38  1  0
 19 39  1  0
 19 40  1  0
 20 41  1  0
 20 42  1  0
 21 43  1  0
 21 44  1  0
 22 45  1  0
 22 46  1  0
 23 47  1  0
M  END
>  <Energy>  (187) 
61.389751470201979

>  <compound_id>  (187) 
27300

>  <target_id>  (187) 
1

>  <reference_id>  (187) 
124

>  <inspiration_ids>  (187) 
[89, 124]

>  <energy_score>  (187) 
-33.492641320139626

>  <distance_score>  (187) 
9.936502431178504

>  <path>  (187) 
/opt/xchem-fragalysis-2/maxwin/BulkDock/SCRATCH/511015/C27300-P124/C27300-P124.minimised.mol

>  <scratch_subdir>  (187) 
/opt/xchem-fragalysis-2/maxwin/BulkDock/SCRATCH/511015/C27300-P124

>  <fragmenstein_runtime>  (187) 
20.319549083709717

>  <fragmenstein_outcome>  (187) 
too moved

>  <fragmenstein_mode>  (187) 
expansion

>  <fragmenstein_error>  (187) 


$$$$
C27266-P124
     RDKit          3D

 46 48  0  0  0  0  0  0  0  0999 V2000
    4.6400  -20.8877   31.5053 C   0  0  0  0  0  0  0  0  0  0  0  0
    5.4822  -19.5290   30.5157 C   0  0  0  0  0  0  0  0  0  0  0  0
    6.0041  -20.1717   29.2685 C   0  0  0  0  0  0  0  0  0  0  0  0
    5.3371  -19.4401   27.6877 C   0  0  0  0  0  0  0  0  0  0  0  0
    4.1873  -18.0175   28.0500 C   0  0  0  0  0  0  0  0  0  0  0  0
    3.6897  -17.2726   28.8808 C   0  0  0  0  0  0  0  0  0  0  0  0
    4.4854  -18.1221   30.0940 C   0  0  0  0  0  0  0  0  0  0  0  0
    2.6966  -17.2191   27.1345 C   0  0  0  0  0  0  0  0  0  0  0  0
    2.8337  -16.1692   26.1259 C   0  0  0  0  0  0  0  0  0  0  0  0
    3.9771  -14.9592   25.2794 C   0  0  0  0  0  0  0  0  0  0  0  0
    4.0316  -15.2035   24.0898 O   0  0  0  0  0  0  0  0  0  0  0  0
    4.7552  -13.8404   26.1507 N   0  0  0  0  0  0  0  0  0  0  0  0
    6.0185  -12.6501   25.6892 C   0  0  0  0  0  0  0  0  0  0  0  0
    7.6822  -12.3173   25.9474 C   0  0  0  0  0  0  0  0  0  0  0  0
    8.5475  -12.4576   24.6811 C   0  0  0  0  0  0  0  0  0  0  0  0
    7.9491  -10.9006   26.4507 N   0  0  0  0  0  0  0  0  0  0  0  0
    9.2991  -10.7163   27.0303 C   0  0  0  0  0  0  0  0  0  0  0  0
    9.7733   -9.3228   26.6381 C   0  0  0  0  0  0  0  0  0  0  0  0
    9.0977   -9.0924   25.3135 C   0  0  0  0  0  0  0  0  0  0  0  0
    7.7537   -9.7945   25.4881 C   0  0  0  0  0  0  0  0  0  0  0  0
    2.8053  -15.4641   27.3198 C   0  0  0  0  0  0  0  0  0  0  0  0
    4.1053  -16.1620   27.7356 O   0  0  0  0  0  0  0  0  0  0  0  0
    4.3225  -21.6629   30.7946 H   0  0  0  0  0  0  0  0  0  0  0  0
    3.8068  -20.4640   32.0919 H   0  0  0  0  0  0  0  0  0  0  0  0
    5.1487  -21.5403   32.1622 H   0  0  0  0  0  0  0  0  0  0  0  0
    5.6405  -21.2363   29.2332 H   0  0  0  0  0  0  0  0  0  0  0  0
    4.9868  -20.1666   26.9284 H   0  0  0  0  0  0  0  0  0  0  0  0
    4.7753  -17.3141   30.7810 H   0  0  0  0  0  0  0  0  0  0  0  0
    2.6444  -18.1408   26.5857 H   0  0  0  0  0  0  0  0  0  0  0  0
    4.4181  -13.8549   27.0955 H   0  0  0  0  0  0  0  0  0  0  0  0
    5.7771  -12.0396   26.5711 H   0  0  0  0  0  0  0  0  0  0  0  0
    5.7781  -12.0341   24.8378 H   0  0  0  0  0  0  0  0  0  0  0  0
    8.0074  -13.0143   26.7250 H   0  0  0  0  0  0  0  0  0  0  0  0
    9.5210  -11.9638   24.7229 H   0  0  0  0  0  0  0  0  0  0  0  0
    8.7838  -13.5013   24.5025 H   0  0  0  0  0  0  0  0  0  0  0  0
    8.0074  -12.0655   23.8268 H   0  0  0  0  0  0  0  0  0  0  0  0
    9.2546  -10.8196   28.1197 H   0  0  0  0  0  0  0  0  0  0  0  0
   10.0222  -11.4562   26.6727 H   0  0  0  0  0  0  0  0  0  0  0  0
   10.8629   -9.2528   26.5726 H   0  0  0  0  0  0  0  0  0  0  0  0
    9.4238   -8.5871   27.3725 H   0  0  0  0  0  0  0  0  0  0  0  0
    9.6819   -9.5558   24.5121 H   0  0  0  0  0  0  0  0  0  0  0  0
    8.9932   -8.0248   25.1098 H   0  0  0  0  0  0  0  0  0  0  0  0
    7.3234  -10.1092   24.5391 H   0  0  0  0  0  0  0  0  0  0  0  0
    7.0427   -9.0910   25.9381 H   0  0  0  0  0  0  0  0  0  0  0  0
    1.8679  -15.5538   27.9264 H   0  0  0  0  0  0  0  0  0  0  0  0
    2.7801  -14.4099   27.0908 H   0  0  0  0  0  0  0  0  0  0  0  0
  1  2  1  0
  2  3  2  0
  3  4  1  0
  4  5  2  0
  5  6  1  0
  6  7  2  0
  6  8  1  0
  8  9  2  0
  9 10  1  0
 10 11  2  0
 10 12  1  0
 12 13  1  0
 13 14  1  0
 14 15  1  0
 14 16  1  0
 16 17  1  0
 17 18  1  0
 18 19  1  0
 19 20  1  0
  9 21  1  0
 21 22  1  0
  7  2  1  0
 20 16  1  0
 22  5  1  0
  1 23  1  0
  1 24  1  0
  1 25  1  0
  3 26  1  0
  4 27  1  0
  7 28  1  0
  8 29  1  0
 12 30  1  0
 13 31  1  0
 13 32  1  0
 14 33  1  0
 15 34  1  0
 15 35  1  0
 15 36  1  0
 17 37  1  0
 17 38  1  0
 18 39  1  0
 18 40  1  0
 19 41  1  0
 19 42  1  0
 20 43  1  0
 20 44  1  0
 21 45  1  0
 21 46  1  0
M  END
>  <Energy>  (188) 
999.38204663204931

>  <compound_id>  (188) 
27266

>  <target_id>  (188) 
1

>  <reference_id>  (188) 
124

>  <inspiration_ids>  (188) 
[89, 124]

>  <energy_score>  (188) 
939.8203864897214

>  <distance_score>  (188) 
10.759819335477363

>  <path>  (188) 
/opt/xchem-fragalysis-2/maxwin/BulkDock/SCRATCH/511015/C27266-P124/C27266-P124.minimised.mol

>  <scratch_subdir>  (188) 
/opt/xchem-fragalysis-2/maxwin/BulkDock/SCRATCH/511015/C27266-P124

>  <fragmenstein_runtime>  (188) 
14.986599922180176

>  <fragmenstein_outcome>  (188) 
too moved

>  <fragmenstein_mode>  (188) 
expansion

>  <fragmenstein_error>  (188) 


$$$$
C27267-P124
     RDKit          3D

 46 48  0  0  0  0  0  0  0  0999 V2000
    2.0573  -14.5211   27.2235 C   0  0  0  0  0  0  0  0  0  0  0  0
    3.6091  -14.3567   26.9072 C   0  0  0  0  0  0  0  0  0  0  0  0
    3.7399  -14.9823   25.7651 C   0  0  0  0  0  0  0  0  0  0  0  0
    4.8397  -14.3939   25.3186 C   0  0  0  0  0  0  0  0  0  0  0  0
    5.8898  -13.1037   25.8524 C   0  0  0  0  0  0  0  0  0  0  0  0
    5.9128  -12.5776   27.0624 C   0  0  0  0  0  0  0  0  0  0  0  0
    4.8107  -13.2276   27.6002 C   0  0  0  0  0  0  0  0  0  0  0  0
    6.8973  -11.5894   27.5385 C   0  0  0  0  0  0  0  0  0  0  0  0
    7.7932  -11.0703   26.6573 C   0  0  0  0  0  0  0  0  0  0  0  0
    9.0079  -10.1799   27.0817 C   0  0  0  0  0  0  0  0  0  0  0  0
    9.2722  -10.2451   28.2520 O   0  0  0  0  0  0  0  0  0  0  0  0
    9.6937   -9.4846   25.9840 N   0  0  0  0  0  0  0  0  0  0  0  0
   10.9849   -8.7257   25.9591 C   0  0  0  0  0  0  0  0  0  0  0  0
   11.2526   -7.7233   24.7736 C   0  0  0  0  0  0  0  0  0  0  0  0
   12.7532   -7.3262   24.5412 C   0  0  0  0  0  0  0  0  0  0  0  0
   13.0193   -6.5794   23.2926 N   0  0  0  0  0  0  0  0  0  0  0  0
   12.9556   -5.1147   23.4325 C   0  0  0  0  0  0  0  0  0  0  0  0
   13.5316   -4.6286   22.1075 C   0  0  0  0  0  0  0  0  0  0  0  0
   14.5849   -5.6671   21.7518 C   0  0  0  0  0  0  0  0  0  0  0  0
   14.3669   -6.8063   22.7467 C   0  0  0  0  0  0  0  0  0  0  0  0
    7.6866  -11.5350   25.2500 C   0  0  0  0  0  0  0  0  0  0  0  0
    6.9471  -12.7410   25.0305 O   0  0  0  0  0  0  0  0  0  0  0  0
    1.8421  -15.4690   27.7187 H   0  0  0  0  0  0  0  0  0  0  0  0
    1.6235  -13.6591   27.7390 H   0  0  0  0  0  0  0  0  0  0  0  0
    1.4830  -14.5383   26.2832 H   0  0  0  0  0  0  0  0  0  0  0  0
    3.1220  -15.7043   25.2686 H   0  0  0  0  0  0  0  0  0  0  0  0
    5.0336  -14.9905   24.4184 H   0  0  0  0  0  0  0  0  0  0  0  0
    4.6486  -12.7028   28.5338 H   0  0  0  0  0  0  0  0  0  0  0  0
    6.9144  -11.3404   28.5939 H   0  0  0  0  0  0  0  0  0  0  0  0
    9.2396   -9.7132   25.1133 H   0  0  0  0  0  0  0  0  0  0  0  0
   11.7603   -9.5000   25.9477 H   0  0  0  0  0  0  0  0  0  0  0  0
   11.0719   -8.2041   26.9183 H   0  0  0  0  0  0  0  0  0  0  0  0
   10.8794   -8.1909   23.8598 H   0  0  0  0  0  0  0  0  0  0  0  0
   10.6695   -6.8233   24.9803 H   0  0  0  0  0  0  0  0  0  0  0  0
   13.1366   -6.7908   25.4184 H   0  0  0  0  0  0  0  0  0  0  0  0
   13.3063   -8.2739   24.4962 H   0  0  0  0  0  0  0  0  0  0  0  0
   13.5845   -4.7670   24.2624 H   0  0  0  0  0  0  0  0  0  0  0  0
   11.9429   -4.7443   23.5950 H   0  0  0  0  0  0  0  0  0  0  0  0
   13.9599   -3.6255   22.1894 H   0  0  0  0  0  0  0  0  0  0  0  0
   12.7542   -4.6077   21.3344 H   0  0  0  0  0  0  0  0  0  0  0  0
   15.5957   -5.2570   21.8497 H   0  0  0  0  0  0  0  0  0  0  0  0
   14.4570   -6.0004   20.7176 H   0  0  0  0  0  0  0  0  0  0  0  0
   15.1280   -6.7551   23.5361 H   0  0  0  0  0  0  0  0  0  0  0  0
   14.4428   -7.7824   22.2568 H   0  0  0  0  0  0  0  0  0  0  0  0
    8.6844  -11.7438   24.8504 H   0  0  0  0  0  0  0  0  0  0  0  0
    7.2352  -10.7513   24.6336 H   0  0  0  0  0  0  0  0  0  0  0  0
  1  2  1  0
  2  3  2  0
  3  4  1  0
  4  5  2  0
  5  6  1  0
  6  7  2  0
  6  8  1  0
  8  9  2  0
  9 10  1  0
 10 11  2  0
 10 12  1  0
 12 13  1  0
 13 14  1  0
 14 15  1  0
 15 16  1  0
 16 17  1  0
 17 18  1  0
 18 19  1  0
 19 20  1  0
  9 21  1  0
 21 22  1  0
  7  2  1  0
 20 16  1  0
 22  5  1  0
  1 23  1  0
  1 24  1  0
  1 25  1  0
  3 26  1  0
  4 27  1  0
  7 28  1  0
  8 29  1  0
 12 30  1  0
 13 31  1  0
 13 32  1  0
 14 33  1  0
 14 34  1  0
 15 35  1  0
 15 36  1  0
 17 37  1  0
 17 38  1  0
 18 39  1  0
 18 40  1  0
 19 41  1  0
 19 42  1  0
 20 43  1  0
 20 44  1  0
 21 45  1  0
 21 46  1  0
M  END
>  <Energy>  (189) 
155.64306294482256

>  <compound_id>  (189) 
27267

>  <target_id>  (189) 
1

>  <reference_id>  (189) 
124

>  <inspiration_ids>  (189) 
[89, 124]

>  <energy_score>  (189) 
117.45218908541443

>  <distance_score>  (189) 
8.51104708476944

>  <path>  (189) 
/opt/xchem-fragalysis-2/maxwin/BulkDock/SCRATCH/511015/C27267-P124/C27267-P124.minimised.mol

>  <scratch_subdir>  (189) 
/opt/xchem-fragalysis-2/maxwin/BulkDock/SCRATCH/511015/C27267-P124

>  <fragmenstein_runtime>  (189) 
20.394620180130005

>  <fragmenstein_outcome>  (189) 
too moved

>  <fragmenstein_mode>  (189) 
expansion

>  <fragmenstein_error>  (189) 


$$$$
C27301-P124
     RDKit          3D

 47 49  0  0  0  0  0  0  0  0999 V2000
    4.5595  -14.1309   25.7102 C   0  0  0  0  0  0  0  0  0  0  0  0
    5.7992  -13.3269   25.6604 O   0  0  0  0  0  0  0  0  0  0  0  0
    6.5523  -12.4755   26.3799 C   0  0  0  0  0  0  0  0  0  0  0  0
    6.2970  -11.9437   27.6249 C   0  0  0  0  0  0  0  0  0  0  0  0
    7.2646  -11.1570   28.2626 C   0  0  0  0  0  0  0  0  0  0  0  0
    8.4640  -10.8411   27.6205 C   0  0  0  0  0  0  0  0  0  0  0  0
    8.6864  -11.2699   26.3196 C   0  0  0  0  0  0  0  0  0  0  0  0
    7.7427  -12.1090   25.7267 C   0  0  0  0  0  0  0  0  0  0  0  0
    9.8482  -10.7777   25.5727 C   0  0  0  0  0  0  0  0  0  0  0  0
   10.7479  -10.0110   26.2139 C   0  0  0  0  0  0  0  0  0  0  0  0
   12.0458   -9.6407   25.5219 C   0  0  0  0  0  0  0  0  0  0  0  0
   12.9768  -10.3558   25.7564 O   0  0  0  0  0  0  0  0  0  0  0  0
   11.9183   -8.5272   24.6092 N   0  0  0  0  0  0  0  0  0  0  0  0
   12.8582   -7.9839   23.6112 C   0  0  0  0  0  0  0  0  0  0  0  0
   13.1508   -6.4491   23.5161 C   0  0  0  0  0  0  0  0  0  0  0  0
   13.7542   -6.1176   22.1162 C   0  0  0  0  0  0  0  0  0  0  0  0
   13.9952   -4.7094   21.7927 N   0  0  0  0  0  0  0  0  0  0  0  0
   15.1599   -4.1398   22.4718 C   0  0  0  0  0  0  0  0  0  0  0  0
   15.4314   -2.8685   21.6811 C   0  0  0  0  0  0  0  0  0  0  0  0
   15.0383   -3.2066   20.2528 C   0  0  0  0  0  0  0  0  0  0  0  0
   14.2691   -4.5162   20.3583 C   0  0  0  0  0  0  0  0  0  0  0  0
   10.6501   -9.8323   27.7042 C   0  0  0  0  0  0  0  0  0  0  0  0
    9.3485  -10.0526   28.3010 O   0  0  0  0  0  0  0  0  0  0  0  0
    4.7997  -15.0615   25.2239 H   0  0  0  0  0  0  0  0  0  0  0  0
    4.1326  -14.2772   26.7034 H   0  0  0  0  0  0  0  0  0  0  0  0
    3.7917  -13.8193   24.9996 H   0  0  0  0  0  0  0  0  0  0  0  0
    5.3879  -12.1770   28.1646 H   0  0  0  0  0  0  0  0  0  0  0  0
    7.0718  -10.7848   29.2657 H   0  0  0  0  0  0  0  0  0  0  0  0
    7.9333  -12.4703   24.7192 H   0  0  0  0  0  0  0  0  0  0  0  0
    9.9740  -11.0734   24.5373 H   0  0  0  0  0  0  0  0  0  0  0  0
   11.0089   -8.1014   24.7329 H   0  0  0  0  0  0  0  0  0  0  0  0
   12.4400   -8.3184   22.6542 H   0  0  0  0  0  0  0  0  0  0  0  0
   13.8072   -8.5174   23.7398 H   0  0  0  0  0  0  0  0  0  0  0  0
   13.8493   -6.1668   24.3118 H   0  0  0  0  0  0  0  0  0  0  0  0
   12.2340   -5.8783   23.6836 H   0  0  0  0  0  0  0  0  0  0  0  0
   13.0290   -6.4918   21.3867 H   0  0  0  0  0  0  0  0  0  0  0  0
   14.6679   -6.7099   21.9731 H   0  0  0  0  0  0  0  0  0  0  0  0
   16.0300   -4.8059   22.4122 H   0  0  0  0  0  0  0  0  0  0  0  0
   14.9570   -3.9210   23.5246 H   0  0  0  0  0  0  0  0  0  0  0  0
   14.8056   -2.0490   22.0541 H   0  0  0  0  0  0  0  0  0  0  0  0
   16.4761   -2.5515   21.7567 H   0  0  0  0  0  0  0  0  0  0  0  0
   14.4318   -2.4044   19.8235 H   0  0  0  0  0  0  0  0  0  0  0  0
   15.9249   -3.3309   19.6215 H   0  0  0  0  0  0  0  0  0  0  0  0
   14.8951   -5.3260   19.9625 H   0  0  0  0  0  0  0  0  0  0  0  0
   13.3421   -4.4863   19.7772 H   0  0  0  0  0  0  0  0  0  0  0  0
   10.9263   -8.8028   27.9580 H   0  0  0  0  0  0  0  0  0  0  0  0
   11.3607  -10.4965   28.2101 H   0  0  0  0  0  0  0  0  0  0  0  0
  1  2  1  0
  2  3  1  0
  3  4  2  0
  4  5  1  0
  5  6  2  0
  6  7  1  0
  7  8  2  0
  7  9  1  0
  9 10  2  0
 10 11  1  0
 11 12  2  0
 11 13  1  0
 13 14  1  0
 14 15  1  0
 15 16  1  0
 16 17  1  0
 17 18  1  0
 18 19  1  0
 19 20  1  0
 20 21  1  0
 10 22  1  0
 22 23  1  0
  8  3  1  0
 21 17  1  0
 23  6  1  0
  1 24  1  0
  1 25  1  0
  1 26  1  0
  4 27  1  0
  5 28  1  0
  8 29  1  0
  9 30  1  0
 13 31  1  0
 14 32  1  0
 14 33  1  0
 15 34  1  0
 15 35  1  0
 16 36  1  0
 16 37  1  0
 18 38  1  0
 18 39  1  0
 19 40  1  0
 19 41  1  0
 20 42  1  0
 20 43  1  0
 21 44  1  0
 21 45  1  0
 22 46  1  0
 22 47  1  0
M  END
>  <Energy>  (190) 
46.33435202032863

>  <compound_id>  (190) 
27301

>  <target_id>  (190) 
1

>  <reference_id>  (190) 
124

>  <inspiration_ids>  (190) 
[89, 124]

>  <energy_score>  (190) 
15.90935664594383

>  <distance_score>  (190) 
9.060138406809585

>  <path>  (190) 
/opt/xchem-fragalysis-2/maxwin/BulkDock/SCRATCH/511015/C27301-P124/C27301-P124.minimised.mol

>  <scratch_subdir>  (190) 
/opt/xchem-fragalysis-2/maxwin/BulkDock/SCRATCH/511015/C27301-P124

>  <fragmenstein_runtime>  (190) 
28.71347975730896

>  <fragmenstein_outcome>  (190) 
too moved

>  <fragmenstein_mode>  (190) 
expansion

>  <fragmenstein_error>  (190) 


$$$$
C27302-P124
     RDKit          3D

 50 52  0  0  0  0  0  0  0  0999 V2000
    4.5492  -20.5716   25.7107 C   0  0  0  0  0  0  0  0  0  0  0  0
    3.7002  -19.4617   24.9070 C   0  0  0  0  0  0  0  0  0  0  0  0
    3.7073  -17.7445   25.1653 O   0  0  0  0  0  0  0  0  0  0  0  0
    2.9215  -17.1520   26.3418 C   0  0  0  0  0  0  0  0  0  0  0  0
    2.2404  -18.0188   26.6523 C   0  0  0  0  0  0  0  0  0  0  0  0
    3.3246  -18.2493   27.2451 C   0  0  0  0  0  0  0  0  0  0  0  0
    3.8606  -17.1415   28.1870 C   0  0  0  0  0  0  0  0  0  0  0  0
    3.8321  -15.9003   27.6513 C   0  0  0  0  0  0  0  0  0  0  0  0
    2.6857  -16.2989   27.5745 C   0  0  0  0  0  0  0  0  0  0  0  0
    1.7236  -15.2564   27.9073 O   0  0  0  0  0  0  0  0  0  0  0  0
    2.2195  -13.8577   27.3420 C   0  0  0  0  0  0  0  0  0  0  0  0
    4.0737  -13.8733   26.9923 C   0  0  0  0  0  0  0  0  0  0  0  0
    5.3986  -12.6468   27.3584 C   0  0  0  0  0  0  0  0  0  0  0  0
    5.3379  -12.2306   28.4774 O   0  0  0  0  0  0  0  0  0  0  0  0
    6.3843  -12.3894   26.2981 N   0  0  0  0  0  0  0  0  0  0  0  0
    7.7014  -11.5902   26.3172 C   0  0  0  0  0  0  0  0  0  0  0  0
    7.9708  -10.2551   25.3860 C   0  0  0  0  0  0  0  0  0  0  0  0
    7.3763   -8.9994   26.0396 C   0  0  0  0  0  0  0  0  0  0  0  0
    9.3368   -9.9163   24.8490 N   0  0  0  0  0  0  0  0  0  0  0  0
   10.0322   -8.6830   25.2301 C   0  0  0  0  0  0  0  0  0  0  0  0
   11.3069   -8.7358   24.3949 C   0  0  0  0  0  0  0  0  0  0  0  0
   11.6061  -10.2222   24.2647 C   0  0  0  0  0  0  0  0  0  0  0  0
   10.3647  -10.9443   24.8056 C   0  0  0  0  0  0  0  0  0  0  0  0
    4.1659  -14.9854   26.3552 C   0  0  0  0  0  0  0  0  0  0  0  0
    5.4957  -20.8919   25.3203 H   0  0  0  0  0  0  0  0  0  0  0  0
    4.0342  -21.5404   25.7182 H   0  0  0  0  0  0  0  0  0  0  0  0
    4.8651  -20.3473   26.7176 H   0  0  0  0  0  0  0  0  0  0  0  0
    2.6988  -19.6207   24.7994 H   0  0  0  0  0  0  0  0  0  0  0  0
    3.7356  -19.6660   23.8320 H   0  0  0  0  0  0  0  0  0  0  0  0
    2.1792  -18.2635   25.5679 H   0  0  0  0  0  0  0  0  0  0  0  0
    3.7752  -19.2307   27.3282 H   0  0  0  0  0  0  0  0  0  0  0  0
    4.2286  -17.4162   29.1769 H   0  0  0  0  0  0  0  0  0  0  0  0
    1.8669  -13.0539   28.0135 H   0  0  0  0  0  0  0  0  0  0  0  0
    1.6146  -13.6602   26.4487 H   0  0  0  0  0  0  0  0  0  0  0  0
    6.0855  -12.8334   25.4633 H   0  0  0  0  0  0  0  0  0  0  0  0
    8.4347  -12.3465   26.0196 H   0  0  0  0  0  0  0  0  0  0  0  0
    7.8982  -11.3323   27.3636 H   0  0  0  0  0  0  0  0  0  0  0  0
    7.3627  -10.4613   24.4985 H   0  0  0  0  0  0  0  0  0  0  0  0
    7.2777   -8.1959   25.3082 H   0  0  0  0  0  0  0  0  0  0  0  0
    6.3808   -9.1973   26.4436 H   0  0  0  0  0  0  0  0  0  0  0  0
    7.9788   -8.6531   26.8858 H   0  0  0  0  0  0  0  0  0  0  0  0
   10.2812   -8.6919   26.2983 H   0  0  0  0  0  0  0  0  0  0  0  0
    9.4803   -7.7678   25.0051 H   0  0  0  0  0  0  0  0  0  0  0  0
   11.1461   -8.3012   23.4031 H   0  0  0  0  0  0  0  0  0  0  0  0
   12.1291   -8.1918   24.8700 H   0  0  0  0  0  0  0  0  0  0  0  0
   11.8056  -10.4869   23.2223 H   0  0  0  0  0  0  0  0  0  0  0  0
   12.4904  -10.4967   24.8502 H   0  0  0  0  0  0  0  0  0  0  0  0
   10.0878  -11.7869   24.1658 H   0  0  0  0  0  0  0  0  0  0  0  0
   10.5778  -11.3287   25.8103 H   0  0  0  0  0  0  0  0  0  0  0  0
    4.8109  -15.1024   25.5041 H   0  0  0  0  0  0  0  0  0  0  0  0
  1  2  1  0
  2  3  1  0
  3  4  1  0
  4  5  2  0
  5  6  1  0
  6  7  2  0
  7  8  1  0
  8  9  2  0
  9 10  1  0
 10 11  1  0
 11 12  1  0
 12 13  1  0
 13 14  2  0
 13 15  1  0
 15 16  1  0
 16 17  1  0
 17 18  1  0
 17 19  1  0
 19 20  1  0
 20 21  1  0
 21 22  1  0
 22 23  1  0
 12 24  2  0
  9  4  1  0
 23 19  1  0
 24  8  1  0
  1 25  1  0
  1 26  1  0
  1 27  1  0
  2 28  1  0
  2 29  1  0
  5 30  1  0
  6 31  1  0
  7 32  1  0
 11 33  1  0
 11 34  1  0
 15 35  1  0
 16 36  1  0
 16 37  1  0
 17 38  1  0
 18 39  1  0
 18 40  1  0
 18 41  1  0
 20 42  1  0
 20 43  1  0
 21 44  1  0
 21 45  1  0
 22 46  1  0
 22 47  1  0
 23 48  1  0
 23 49  1  0
 24 50  1  0
M  END
>  <Energy>  (191) 
787.69867718053081

>  <compound_id>  (191) 
27302

>  <target_id>  (191) 
1

>  <reference_id>  (191) 
124

>  <inspiration_ids>  (191) 
[89, 124]

>  <energy_score>  (191) 
719.2689159289494

>  <distance_score>  (191) 
9.971297322615328

>  <path>  (191) 
/opt/xchem-fragalysis-2/maxwin/BulkDock/SCRATCH/511015/C27302-P124/C27302-P124.minimised.mol

>  <scratch_subdir>  (191) 
/opt/xchem-fragalysis-2/maxwin/BulkDock/SCRATCH/511015/C27302-P124

>  <fragmenstein_runtime>  (191) 
16.871488332748413

>  <fragmenstein_outcome>  (191) 
too moved

>  <fragmenstein_mode>  (191) 
expansion

>  <fragmenstein_error>  (191) 


$$$$
C22603-P123
     RDKit          3D

 50 51  0  0  0  0  0  0  0  0999 V2000
  -10.5246  -26.2852   19.0355 C   0  0  0  0  0  0  0  0  0  0  0  0
  -10.2896  -25.8497   17.5972 C   0  0  0  0  0  0  0  0  0  0  0  0
  -10.1576  -24.4217   17.5409 O   0  0  0  0  0  0  0  0  0  0  0  0
   -8.9137  -23.9146   17.8035 C   0  0  0  0  0  0  0  0  0  0  0  0
   -7.9118  -24.6247   17.9014 O   0  0  0  0  0  0  0  0  0  0  0  0
   -8.9341  -22.3234   17.9922 C   0  0  0  0  0  0  0  0  0  0  0  0
   -7.8896  -21.7393   17.0199 C   0  0  0  0  0  0  0  0  0  0  0  0
   -8.0609  -20.3266   16.7212 N   0  0  0  0  0  0  0  0  0  0  0  0
   -8.7852  -19.6476   15.6042 C   0  0  0  0  0  0  0  0  0  0  0  0
   -9.4498  -20.0991   14.7521 O   0  0  0  0  0  0  0  0  0  0  0  0
   -8.4520  -18.2222   15.9125 N   0  0  0  0  0  0  0  0  0  0  0  0
   -8.9288  -16.9837   15.3107 C   0  0  0  0  0  0  0  0  0  0  0  0
   -7.8616  -15.9557   14.8967 C   0  0  0  0  0  0  0  0  0  0  0  0
   -8.5389  -14.6565   14.4008 C   0  0  0  0  0  0  0  0  0  0  0  0
   -9.7406  -14.6138   14.3347 O   0  0  0  0  0  0  0  0  0  0  0  0
   -7.5556  -13.6327   14.1754 N   0  0  0  0  0  0  0  0  0  0  0  0
   -7.1192  -13.6318   12.7245 C   0  0  0  0  0  0  0  0  0  0  0  0
   -6.0429  -12.5940   12.4223 C   0  0  0  0  0  0  0  0  0  0  0  0
   -6.4718  -11.5065   13.3398 C   0  0  0  0  0  0  0  0  0  0  0  0
   -7.7151  -12.1641   13.8961 C   0  0  0  0  0  0  0  0  0  0  0  0
  -10.3496  -21.6350   18.1053 C   0  0  0  0  0  0  0  0  0  0  0  0
  -10.3443  -22.0050   19.5962 C   0  0  0  0  0  0  0  0  0  0  0  0
   -8.7968  -21.9524   19.5254 C   0  0  0  0  0  0  0  0  0  0  0  0
   -9.6510  -26.0529   19.6478 H   0  0  0  0  0  0  0  0  0  0  0  0
  -10.7147  -27.3605   19.0907 H   0  0  0  0  0  0  0  0  0  0  0  0
  -11.3823  -25.7486   19.4480 H   0  0  0  0  0  0  0  0  0  0  0  0
  -11.1587  -26.1147   16.9864 H   0  0  0  0  0  0  0  0  0  0  0  0
   -9.4207  -26.3527   17.1585 H   0  0  0  0  0  0  0  0  0  0  0  0
   -6.8760  -21.8774   17.4100 H   0  0  0  0  0  0  0  0  0  0  0  0
   -7.9590  -22.2551   16.0552 H   0  0  0  0  0  0  0  0  0  0  0  0
   -7.5185  -19.6511   17.2233 H   0  0  0  0  0  0  0  0  0  0  0  0
   -7.9240  -18.1817   16.7618 H   0  0  0  0  0  0  0  0  0  0  0  0
   -9.5388  -17.2601   14.4429 H   0  0  0  0  0  0  0  0  0  0  0  0
   -9.6063  -16.5412   16.0504 H   0  0  0  0  0  0  0  0  0  0  0  0
   -7.2215  -15.7164   15.7532 H   0  0  0  0  0  0  0  0  0  0  0  0
   -7.2355  -16.3675   14.0989 H   0  0  0  0  0  0  0  0  0  0  0  0
   -7.9904  -13.5567   12.0499 H   0  0  0  0  0  0  0  0  0  0  0  0
   -6.7082  -14.6294   12.5176 H   0  0  0  0  0  0  0  0  0  0  0  0
   -6.0369  -12.3061   11.3675 H   0  0  0  0  0  0  0  0  0  0  0  0
   -5.0471  -12.9633   12.6894 H   0  0  0  0  0  0  0  0  0  0  0  0
   -5.7254  -11.3322   14.1218 H   0  0  0  0  0  0  0  0  0  0  0  0
   -6.6862  -10.5595   12.8377 H   0  0  0  0  0  0  0  0  0  0  0  0
   -8.6238  -11.9732   13.2997 H   0  0  0  0  0  0  0  0  0  0  0  0
   -7.9482  -11.7144   14.8705 H   0  0  0  0  0  0  0  0  0  0  0  0
  -10.3625  -20.5551   17.9283 H   0  0  0  0  0  0  0  0  0  0  0  0
  -11.1573  -22.0746   17.5134 H   0  0  0  0  0  0  0  0  0  0  0  0
  -10.7877  -22.9920   19.7403 H   0  0  0  0  0  0  0  0  0  0  0  0
  -10.8414  -21.3205   20.2808 H   0  0  0  0  0  0  0  0  0  0  0  0
   -8.3480  -20.9696   19.6921 H   0  0  0  0  0  0  0  0  0  0  0  0
   -8.2744  -22.6786   20.1544 H   0  0  0  0  0  0  0  0  0  0  0  0
  1  2  1  0
  2  3  1  0
  3  4  1  0
  4  5  2  0
  4  6  1  0
  6  7  1  0
  7  8  1  0
  8  9  1  0
  9 10  2  0
  9 11  1  0
 11 12  1  0
 12 13  1  0
 13 14  1  0
 14 15  2  0
 14 16  1  0
 16 17  1  0
 17 18  1  0
 18 19  1  0
 19 20  1  0
  6 21  1  0
 21 22  1  0
 22 23  1  0
 23  6  1  0
 20 16  1  0
  1 24  1  0
  1 25  1  0
  1 26  1  0
  2 27  1  0
  2 28  1  0
  7 29  1  0
  7 30  1  0
  8 31  1  0
 11 32  1  0
 12 33  1  0
 12 34  1  0
 13 35  1  0
 13 36  1  0
 17 37  1  0
 17 38  1  0
 18 39  1  0
 18 40  1  0
 19 41  1  0
 19 42  1  0
 20 43  1  0
 20 44  1  0
 21 45  1  0
 21 46  1  0
 22 47  1  0
 22 48  1  0
 23 49  1  0
 23 50  1  0
M  END
>  <Energy>  (192) 
-14.822558583508343

>  <compound_id>  (192) 
22603

>  <target_id>  (192) 
1

>  <reference_id>  (192) 
123

>  <inspiration_ids>  (192) 
[123, 99]

>  <energy_score>  (192) 
20.854811921648263

>  <distance_score>  (192) 
14.270609032733272

>  <path>  (192) 
/opt/xchem-fragalysis-2/maxwin/BulkDock/SCRATCH/511015/C22603-P123/C22603-P123.minimised.mol

>  <scratch_subdir>  (192) 
/opt/xchem-fragalysis-2/maxwin/BulkDock/SCRATCH/511015/C22603-P123

>  <fragmenstein_runtime>  (192) 
67.89054584503174

>  <fragmenstein_outcome>  (192) 
too moved

>  <fragmenstein_mode>  (192) 
expansion

>  <fragmenstein_error>  (192) 


$$$$
C22603-P99
     RDKit          3D

 50 51  0  0  0  0  0  0  0  0999 V2000
  -14.9300  -21.3942   23.7781 C   0  0  0  0  0  0  0  0  0  0  0  0
  -14.0955  -20.0960   24.3571 C   0  0  0  0  0  0  0  0  0  0  0  0
  -13.2694  -18.6476   23.9059 O   0  0  0  0  0  0  0  0  0  0  0  0
  -12.8181  -17.1550   23.8459 C   0  0  0  0  0  0  0  0  0  0  0  0
  -13.6069  -16.2832   24.1829 O   0  0  0  0  0  0  0  0  0  0  0  0
  -10.9996  -16.8635   23.3683 C   0  0  0  0  0  0  0  0  0  0  0  0
  -11.2290  -14.9884   22.5920 C   0  0  0  0  0  0  0  0  0  0  0  0
  -10.7179  -13.5085   21.2698 N   0  0  0  0  0  0  0  0  0  0  0  0
   -9.3939  -13.5073   19.8365 C   0  0  0  0  0  0  0  0  0  0  0  0
   -8.6492  -14.4084   19.6480 O   0  0  0  0  0  0  0  0  0  0  0  0
   -9.4750  -12.1316   18.7585 N   0  0  0  0  0  0  0  0  0  0  0  0
   -8.8120  -11.8653   17.4936 C   0  0  0  0  0  0  0  0  0  0  0  0
   -8.0917  -10.5178   17.4566 C   0  0  0  0  0  0  0  0  0  0  0  0
   -7.7906  -10.0858   16.0154 C   0  0  0  0  0  0  0  0  0  0  0  0
   -8.6986   -9.8233   15.2694 O   0  0  0  0  0  0  0  0  0  0  0  0
   -6.3787  -10.1318   15.7818 N   0  0  0  0  0  0  0  0  0  0  0  0
   -5.7523   -8.7818   16.0708 C   0  0  0  0  0  0  0  0  0  0  0  0
   -5.9420   -7.7630   14.9558 C   0  0  0  0  0  0  0  0  0  0  0  0
   -5.8179   -8.6655   13.7836 C   0  0  0  0  0  0  0  0  0  0  0  0
   -5.5866   -9.9775   14.5114 C   0  0  0  0  0  0  0  0  0  0  0  0
   -9.6235  -18.5604   23.2277 C   0  0  0  0  0  0  0  0  0  0  0  0
  -10.2878  -19.7678   23.5018 C   0  0  0  0  0  0  0  0  0  0  0  0
  -10.4052  -17.7247   24.3828 C   0  0  0  0  0  0  0  0  0  0  0  0
  -14.7923  -21.6892   22.7357 H   0  0  0  0  0  0  0  0  0  0  0  0
  -15.9958  -21.2570   24.0026 H   0  0  0  0  0  0  0  0  0  0  0  0
  -14.6705  -22.3204   24.3075 H   0  0  0  0  0  0  0  0  0  0  0  0
  -13.1246  -20.6395   24.3985 H   0  0  0  0  0  0  0  0  0  0  0  0
  -14.6615  -19.7105   25.1982 H   0  0  0  0  0  0  0  0  0  0  0  0
  -12.1653  -15.1349   23.1596 H   0  0  0  0  0  0  0  0  0  0  0  0
  -11.3522  -14.0283   22.9804 H   0  0  0  0  0  0  0  0  0  0  0  0
  -11.2704  -12.7313   21.2005 H   0  0  0  0  0  0  0  0  0  0  0  0
  -10.1112  -11.4394   19.1512 H   0  0  0  0  0  0  0  0  0  0  0  0
   -9.5922  -11.9119   16.7266 H   0  0  0  0  0  0  0  0  0  0  0  0
   -8.1114  -12.6840   17.3006 H   0  0  0  0  0  0  0  0  0  0  0  0
   -8.7127   -9.7320   17.9039 H   0  0  0  0  0  0  0  0  0  0  0  0
   -7.1738  -10.5679   18.0533 H   0  0  0  0  0  0  0  0  0  0  0  0
   -6.2253   -8.3855   16.9803 H   0  0  0  0  0  0  0  0  0  0  0  0
   -4.6931   -8.9134   16.3503 H   0  0  0  0  0  0  0  0  0  0  0  0
   -5.1851   -6.9743   14.9863 H   0  0  0  0  0  0  0  0  0  0  0  0
   -6.9316   -7.3001   15.0063 H   0  0  0  0  0  0  0  0  0  0  0  0
   -4.9905   -8.4117   13.1154 H   0  0  0  0  0  0  0  0  0  0  0  0
   -6.7415   -8.6983   13.1997 H   0  0  0  0  0  0  0  0  0  0  0  0
   -4.5212  -10.1932   14.6946 H   0  0  0  0  0  0  0  0  0  0  0  0
   -5.9313  -10.7903   13.8582 H   0  0  0  0  0  0  0  0  0  0  0  0
   -8.6743  -19.1709   23.3995 H   0  0  0  0  0  0  0  0  0  0  0  0
   -8.5390  -18.4103   22.4514 H   0  0  0  0  0  0  0  0  0  0  0  0
  -10.7086  -20.5501   24.1730 H   0  0  0  0  0  0  0  0  0  0  0  0
  -10.7959  -20.2997   22.6421 H   0  0  0  0  0  0  0  0  0  0  0  0
  -11.3120  -17.9712   24.8042 H   0  0  0  0  0  0  0  0  0  0  0  0
   -9.8856  -17.2184   25.2346 H   0  0  0  0  0  0  0  0  0  0  0  0
  1  2  1  0
  2  3  1  0
  3  4  1  0
  4  5  2  0
  4  6  1  0
  6  7  1  0
  7  8  1  0
  8  9  1  0
  9 10  2  0
  9 11  1  0
 11 12  1  0
 12 13  1  0
 13 14  1  0
 14 15  2  0
 14 16  1  0
 16 17  1  0
 17 18  1  0
 18 19  1  0
 19 20  1  0
  6 21  1  0
 21 22  1  0
 22 23  1  0
 23  6  1  0
 20 16  1  0
  1 24  1  0
  1 25  1  0
  1 26  1  0
  2 27  1  0
  2 28  1  0
  7 29  1  0
  7 30  1  0
  8 31  1  0
 11 32  1  0
 12 33  1  0
 12 34  1  0
 13 35  1  0
 13 36  1  0
 17 37  1  0
 17 38  1  0
 18 39  1  0
 18 40  1  0
 19 41  1  0
 19 42  1  0
 20 43  1  0
 20 44  1  0
 21 45  1  0
 21 46  1  0
 22 47  1  0
 22 48  1  0
 23 49  1  0
 23 50  1  0
M  END
>  <Energy>  (193) 
1012.703649447715

>  <compound_id>  (193) 
22603

>  <target_id>  (193) 
1

>  <reference_id>  (193) 
99

>  <inspiration_ids>  (193) 
[123, 99]

>  <energy_score>  (193) 
1048.3810199528712

>  <distance_score>  (193) 
11.599493867287597

>  <path>  (193) 
/opt/xchem-fragalysis-2/maxwin/BulkDock/SCRATCH/511015/C22603-P99/C22603-P99.minimised.mol

>  <scratch_subdir>  (193) 
/opt/xchem-fragalysis-2/maxwin/BulkDock/SCRATCH/511015/C22603-P99

>  <fragmenstein_runtime>  (193) 
49.90264868736267

>  <fragmenstein_outcome>  (193) 
too moved

>  <fragmenstein_mode>  (193) 
expansion

>  <fragmenstein_error>  (193) 


$$$$
C22610-P123
     RDKit          3D

 52 53  0  0  0  0  0  0  0  0999 V2000
  -15.3846  -10.6130   24.0634 C   0  0  0  0  0  0  0  0  0  0  0  0
  -13.9650  -10.1209   24.2686 C   0  0  0  0  0  0  0  0  0  0  0  0
  -13.7753   -8.8806   23.5688 O   0  0  0  0  0  0  0  0  0  0  0  0
  -12.8177   -8.8453   22.5833 C   0  0  0  0  0  0  0  0  0  0  0  0
  -13.1997   -8.7128   21.4191 O   0  0  0  0  0  0  0  0  0  0  0  0
  -11.3067   -8.8794   23.0691 C   0  0  0  0  0  0  0  0  0  0  0  0
  -10.3332   -7.9976   22.0418 C   0  0  0  0  0  0  0  0  0  0  0  0
   -9.3177   -7.6160   22.5761 O   0  0  0  0  0  0  0  0  0  0  0  0
  -10.8367   -7.7721   20.6879 N   0  0  0  0  0  0  0  0  0  0  0  0
  -10.3195   -6.9389   19.5964 C   0  0  0  0  0  0  0  0  0  0  0  0
  -10.6324   -7.2663   18.0979 C   0  0  0  0  0  0  0  0  0  0  0  0
  -10.0939   -6.1169   17.2108 C   0  0  0  0  0  0  0  0  0  0  0  0
  -10.1828   -6.2767   15.6814 C   0  0  0  0  0  0  0  0  0  0  0  0
   -9.7066   -4.9862   14.9885 C   0  0  0  0  0  0  0  0  0  0  0  0
   -8.4034   -4.6107   15.5110 N   0  0  0  0  0  0  0  0  0  0  0  0
   -8.1150   -3.2069   15.3555 C   0  0  0  0  0  0  0  0  0  0  0  0
   -6.6742   -3.1429   15.7931 C   0  0  0  0  0  0  0  0  0  0  0  0
   -6.0770   -4.4733   15.3561 C   0  0  0  0  0  0  0  0  0  0  0  0
   -7.2645   -5.3381   14.9782 C   0  0  0  0  0  0  0  0  0  0  0  0
  -10.6805  -10.2733   23.4608 C   0  0  0  0  0  0  0  0  0  0  0  0
  -10.6736   -9.9300   24.9433 C   0  0  0  0  0  0  0  0  0  0  0  0
  -11.1006   -8.5024   24.6100 C   0  0  0  0  0  0  0  0  0  0  0  0
  -15.5973  -11.5188   24.6275 H   0  0  0  0  0  0  0  0  0  0  0  0
  -16.0968   -9.8425   24.3792 H   0  0  0  0  0  0  0  0  0  0  0  0
  -15.5799  -10.7923   23.0017 H   0  0  0  0  0  0  0  0  0  0  0  0
  -13.7886   -9.9325   25.3311 H   0  0  0  0  0  0  0  0  0  0  0  0
  -13.2747  -10.8888   23.9250 H   0  0  0  0  0  0  0  0  0  0  0  0
  -11.7707   -8.1766   20.6085 H   0  0  0  0  0  0  0  0  0  0  0  0
   -9.2325   -6.8942   19.7343 H   0  0  0  0  0  0  0  0  0  0  0  0
  -10.6964   -5.9327   19.8170 H   0  0  0  0  0  0  0  0  0  0  0  0
  -11.7135   -7.3757   17.9604 H   0  0  0  0  0  0  0  0  0  0  0  0
  -10.1620   -8.2173   17.8261 H   0  0  0  0  0  0  0  0  0  0  0  0
  -10.6238   -5.1982   17.4966 H   0  0  0  0  0  0  0  0  0  0  0  0
   -9.0444   -5.9716   17.4954 H   0  0  0  0  0  0  0  0  0  0  0  0
  -11.2199   -6.4816   15.3932 H   0  0  0  0  0  0  0  0  0  0  0  0
   -9.5777   -7.1356   15.3718 H   0  0  0  0  0  0  0  0  0  0  0  0
   -9.7137   -5.0656   13.9014 H   0  0  0  0  0  0  0  0  0  0  0  0
  -10.4398   -4.2062   15.2357 H   0  0  0  0  0  0  0  0  0  0  0  0
   -8.2347   -2.9122   14.3143 H   0  0  0  0  0  0  0  0  0  0  0  0
   -8.7484   -2.5861   15.9959 H   0  0  0  0  0  0  0  0  0  0  0  0
   -6.1873   -2.2685   15.3727 H   0  0  0  0  0  0  0  0  0  0  0  0
   -6.6112   -3.0589   16.8856 H   0  0  0  0  0  0  0  0  0  0  0  0
   -5.4291   -4.3753   14.4882 H   0  0  0  0  0  0  0  0  0  0  0  0
   -5.4922   -4.9156   16.1697 H   0  0  0  0  0  0  0  0  0  0  0  0
   -7.1774   -6.3451   15.3974 H   0  0  0  0  0  0  0  0  0  0  0  0
   -7.3000   -5.4129   13.8929 H   0  0  0  0  0  0  0  0  0  0  0  0
  -11.2827  -11.1515   23.2553 H   0  0  0  0  0  0  0  0  0  0  0  0
   -9.6788  -10.4258   23.0483 H   0  0  0  0  0  0  0  0  0  0  0  0
  -11.3995  -10.4903   25.5385 H   0  0  0  0  0  0  0  0  0  0  0  0
   -9.6902   -9.9994   25.4156 H   0  0  0  0  0  0  0  0  0  0  0  0
  -11.9874   -8.1577   25.1505 H   0  0  0  0  0  0  0  0  0  0  0  0
  -10.3154   -7.7627   24.8040 H   0  0  0  0  0  0  0  0  0  0  0  0
  1  2  1  0
  2  3  1  0
  3  4  1  0
  4  5  2  0
  4  6  1  0
  6  7  1  0
  7  8  2  0
  7  9  1  0
  9 10  1  0
 10 11  1  0
 11 12  1  0
 12 13  1  0
 13 14  1  0
 14 15  1  0
 15 16  1  0
 16 17  1  0
 17 18  1  0
 18 19  1  0
  6 20  1  0
 20 21  1  0
 21 22  1  0
 22  6  1  0
 19 15  1  0
  1 23  1  0
  1 24  1  0
  1 25  1  0
  2 26  1  0
  2 27  1  0
  9 28  1  0
 10 29  1  0
 10 30  1  0
 11 31  1  0
 11 32  1  0
 12 33  1  0
 12 34  1  0
 13 35  1  0
 13 36  1  0
 14 37  1  0
 14 38  1  0
 16 39  1  0
 16 40  1  0
 17 41  1  0
 17 42  1  0
 18 43  1  0
 18 44  1  0
 19 45  1  0
 19 46  1  0
 20 47  1  0
 20 48  1  0
 21 49  1  0
 21 50  1  0
 22 51  1  0
 22 52  1  0
M  END
>  <Energy>  (194) 
15.530697479896412

>  <compound_id>  (194) 
22610

>  <target_id>  (194) 
1

>  <reference_id>  (194) 
123

>  <inspiration_ids>  (194) 
[123, 99]

>  <energy_score>  (194) 
-14.360434483988229

>  <distance_score>  (194) 
13.660030928319912

>  <path>  (194) 
/opt/xchem-fragalysis-2/maxwin/BulkDock/SCRATCH/511015/C22610-P123/C22610-P123.minimised.mol

>  <scratch_subdir>  (194) 
/opt/xchem-fragalysis-2/maxwin/BulkDock/SCRATCH/511015/C22610-P123

>  <fragmenstein_runtime>  (194) 
50.46350955963135

>  <fragmenstein_outcome>  (194) 
too moved

>  <fragmenstein_mode>  (194) 
expansion

>  <fragmenstein_error>  (194) 


$$$$
C22610-P99
     RDKit          3D

 52 53  0  0  0  0  0  0  0  0999 V2000
   -3.0383  -16.5844   23.0903 C   0  0  0  0  0  0  0  0  0  0  0  0
   -2.8106  -15.5618   21.9776 C   0  0  0  0  0  0  0  0  0  0  0  0
   -3.0063  -14.2363   22.5158 O   0  0  0  0  0  0  0  0  0  0  0  0
   -3.4353  -13.2597   21.6476 C   0  0  0  0  0  0  0  0  0  0  0  0
   -3.5210  -13.4594   20.4362 O   0  0  0  0  0  0  0  0  0  0  0  0
   -3.8952  -11.9379   22.3986 C   0  0  0  0  0  0  0  0  0  0  0  0
   -3.5689  -10.7182   21.3944 C   0  0  0  0  0  0  0  0  0  0  0  0
   -2.6031  -10.0409   21.6389 O   0  0  0  0  0  0  0  0  0  0  0  0
   -4.5191  -10.6541   20.2874 N   0  0  0  0  0  0  0  0  0  0  0  0
   -4.5386   -9.8136   19.0824 C   0  0  0  0  0  0  0  0  0  0  0  0
   -5.9065   -9.1843   18.7268 C   0  0  0  0  0  0  0  0  0  0  0  0
   -6.0022   -8.6389   17.2911 C   0  0  0  0  0  0  0  0  0  0  0  0
   -7.2554   -7.7560   17.1002 C   0  0  0  0  0  0  0  0  0  0  0  0
   -7.6533   -7.5755   15.6427 C   0  0  0  0  0  0  0  0  0  0  0  0
   -6.4566   -7.2590   14.9137 N   0  0  0  0  0  0  0  0  0  0  0  0
   -6.3021   -5.8831   14.5178 C   0  0  0  0  0  0  0  0  0  0  0  0
   -5.2505   -5.9893   13.4525 C   0  0  0  0  0  0  0  0  0  0  0  0
   -4.9601   -7.4675   13.2164 C   0  0  0  0  0  0  0  0  0  0  0  0
   -6.1043   -8.1844   13.8568 C   0  0  0  0  0  0  0  0  0  0  0  0
   -3.4042  -11.8286   23.9077 C   0  0  0  0  0  0  0  0  0  0  0  0
   -4.7288  -12.4973   24.3370 C   0  0  0  0  0  0  0  0  0  0  0  0
   -5.3240  -11.9034   23.0460 C   0  0  0  0  0  0  0  0  0  0  0  0
   -3.0858  -17.6004   22.6907 H   0  0  0  0  0  0  0  0  0  0  0  0
   -3.9487  -16.3495   23.6376 H   0  0  0  0  0  0  0  0  0  0  0  0
   -2.2203  -16.5317   23.8168 H   0  0  0  0  0  0  0  0  0  0  0  0
   -3.5093  -15.7612   21.1589 H   0  0  0  0  0  0  0  0  0  0  0  0
   -1.7860  -15.6356   21.5997 H   0  0  0  0  0  0  0  0  0  0  0  0
   -5.1615  -11.4360   20.3566 H   0  0  0  0  0  0  0  0  0  0  0  0
   -3.7816   -9.0316   19.2031 H   0  0  0  0  0  0  0  0  0  0  0  0
   -4.2130  -10.4663   18.2651 H   0  0  0  0  0  0  0  0  0  0  0  0
   -6.6923   -9.9360   18.8644 H   0  0  0  0  0  0  0  0  0  0  0  0
   -6.1134   -8.3847   19.4488 H   0  0  0  0  0  0  0  0  0  0  0  0
   -6.0294   -9.4962   16.6085 H   0  0  0  0  0  0  0  0  0  0  0  0
   -5.1002   -8.0581   17.0650 H   0  0  0  0  0  0  0  0  0  0  0  0
   -8.1046   -8.1988   17.6354 H   0  0  0  0  0  0  0  0  0  0  0  0
   -7.0690   -6.7787   17.5639 H   0  0  0  0  0  0  0  0  0  0  0  0
   -8.1078   -8.5095   15.2875 H   0  0  0  0  0  0  0  0  0  0  0  0
   -8.4298   -6.8053   15.5647 H   0  0  0  0  0  0  0  0  0  0  0  0
   -5.9569   -5.2706   15.3581 H   0  0  0  0  0  0  0  0  0  0  0  0
   -7.2091   -5.4133   14.1305 H   0  0  0  0  0  0  0  0  0  0  0  0
   -4.3597   -5.4678   13.8044 H   0  0  0  0  0  0  0  0  0  0  0  0
   -5.6002   -5.5557   12.5193 H   0  0  0  0  0  0  0  0  0  0  0  0
   -4.8896   -7.7257   12.1556 H   0  0  0  0  0  0  0  0  0  0  0  0
   -4.0179   -7.7475   13.7041 H   0  0  0  0  0  0  0  0  0  0  0  0
   -6.9000   -8.3740   13.1363 H   0  0  0  0  0  0  0  0  0  0  0  0
   -5.7858   -9.1563   14.2477 H   0  0  0  0  0  0  0  0  0  0  0  0
   -3.2959  -10.7959   24.2629 H   0  0  0  0  0  0  0  0  0  0  0  0
   -2.4945  -12.3733   24.1746 H   0  0  0  0  0  0  0  0  0  0  0  0
   -4.7044  -13.5913   24.3633 H   0  0  0  0  0  0  0  0  0  0  0  0
   -5.1616  -12.1308   25.2712 H   0  0  0  0  0  0  0  0  0  0  0  0
   -6.0763  -12.4783   22.5282 H   0  0  0  0  0  0  0  0  0  0  0  0
   -5.7216  -10.8882   23.1786 H   0  0  0  0  0  0  0  0  0  0  0  0
  1  2  1  0
  2  3  1  0
  3  4  1  0
  4  5  2  0
  4  6  1  0
  6  7  1  0
  7  8  2  0
  7  9  1  0
  9 10  1  0
 10 11  1  0
 11 12  1  0
 12 13  1  0
 13 14  1  0
 14 15  1  0
 15 16  1  0
 16 17  1  0
 17 18  1  0
 18 19  1  0
  6 20  1  0
 20 21  1  0
 21 22  1  0
 22  6  1  0
 19 15  1  0
  1 23  1  0
  1 24  1  0
  1 25  1  0
  2 26  1  0
  2 27  1  0
  9 28  1  0
 10 29  1  0
 10 30  1  0
 11 31  1  0
 11 32  1  0
 12 33  1  0
 12 34  1  0
 13 35  1  0
 13 36  1  0
 14 37  1  0
 14 38  1  0
 16 39  1  0
 16 40  1  0
 17 41  1  0
 17 42  1  0
 18 43  1  0
 18 44  1  0
 19 45  1  0
 19 46  1  0
 20 47  1  0
 20 48  1  0
 21 49  1  0
 21 50  1  0
 22 51  1  0
 22 52  1  0
M  END
>  <Energy>  (195) 
-0.0627373029681495

>  <compound_id>  (195) 
22610

>  <target_id>  (195) 
1

>  <reference_id>  (195) 
99

>  <inspiration_ids>  (195) 
[123, 99]

>  <energy_score>  (195) 
-29.953869266855804

>  <distance_score>  (195) 
13.593155084677736

>  <path>  (195) 
/opt/xchem-fragalysis-2/maxwin/BulkDock/SCRATCH/511015/C22610-P99/C22610-P99.minimised.mol

>  <scratch_subdir>  (195) 
/opt/xchem-fragalysis-2/maxwin/BulkDock/SCRATCH/511015/C22610-P99

>  <fragmenstein_runtime>  (195) 
44.27823615074158

>  <fragmenstein_outcome>  (195) 
too moved

>  <fragmenstein_mode>  (195) 
expansion

>  <fragmenstein_error>  (195) 


$$$$
C22611-P123
     RDKit          3D

 54 55  0  0  0  0  0  0  0  0999 V2000
   -7.7348  -19.6609   16.3911 C   0  0  0  0  0  0  0  0  0  0  0  0
   -8.0135  -18.1660   16.2064 C   0  0  0  0  0  0  0  0  0  0  0  0
   -9.4277  -17.9699   16.3511 O   0  0  0  0  0  0  0  0  0  0  0  0
   -9.8757  -16.7903   16.9117 C   0  0  0  0  0  0  0  0  0  0  0  0
   -9.1583  -15.7958   16.9781 O   0  0  0  0  0  0  0  0  0  0  0  0
  -11.7044  -17.1078   17.6337 C   0  0  0  0  0  0  0  0  0  0  0  0
  -13.1533  -15.4164   18.3134 C   0  0  0  0  0  0  0  0  0  0  0  0
  -13.3191  -14.4333   16.2867 N   0  0  0  0  0  0  0  0  0  0  0  0
  -11.9970  -13.5041   15.1897 C   0  0  0  0  0  0  0  0  0  0  0  0
  -10.8769  -13.4752   15.5431 O   0  0  0  0  0  0  0  0  0  0  0  0
  -12.4339  -12.5828   13.5790 N   0  0  0  0  0  0  0  0  0  0  0  0
  -11.2757  -11.6200   12.2139 C   0  0  0  0  0  0  0  0  0  0  0  0
  -11.0525  -10.1950   10.6443 C   0  0  0  0  0  0  0  0  0  0  0  0
  -12.5799  -10.0302   10.4262 C   0  0  0  0  0  0  0  0  0  0  0  0
  -10.1293   -9.0795    9.0290 C   0  0  0  0  0  0  0  0  0  0  0  0
   -8.9540   -7.7601    7.9246 N   0  0  0  0  0  0  0  0  0  0  0  0
   -9.7787   -6.8035    6.3897 C   0  0  0  0  0  0  0  0  0  0  0  0
   -9.5931   -5.1514    6.0174 C   0  0  0  0  0  0  0  0  0  0  0  0
   -8.8802   -4.6286    7.1888 C   0  0  0  0  0  0  0  0  0  0  0  0
   -8.1889   -5.9140    7.5395 C   0  0  0  0  0  0  0  0  0  0  0  0
  -11.6705  -18.9584   17.8313 C   0  0  0  0  0  0  0  0  0  0  0  0
  -12.4559  -19.2748   16.5917 C   0  0  0  0  0  0  0  0  0  0  0  0
  -12.1114  -17.9574   15.9345 C   0  0  0  0  0  0  0  0  0  0  0  0
   -6.6637  -19.8616   16.2961 H   0  0  0  0  0  0  0  0  0  0  0  0
   -8.0786  -20.0472   17.3511 H   0  0  0  0  0  0  0  0  0  0  0  0
   -8.2639  -20.2339   15.6216 H   0  0  0  0  0  0  0  0  0  0  0  0
   -7.4501  -17.5898   16.9479 H   0  0  0  0  0  0  0  0  0  0  0  0
   -7.7205  -17.8483   15.2011 H   0  0  0  0  0  0  0  0  0  0  0  0
  -14.2567  -15.5295   18.4759 H   0  0  0  0  0  0  0  0  0  0  0  0
  -12.5474  -15.7822   19.2527 H   0  0  0  0  0  0  0  0  0  0  0  0
  -14.2456  -14.2906   15.8847 H   0  0  0  0  0  0  0  0  0  0  0  0
  -13.4035  -12.7636   13.3569 H   0  0  0  0  0  0  0  0  0  0  0  0
  -11.0023  -12.5199   11.6460 H   0  0  0  0  0  0  0  0  0  0  0  0
  -10.4301  -11.3673   12.8664 H   0  0  0  0  0  0  0  0  0  0  0  0
  -10.7000   -9.5346   11.4244 H   0  0  0  0  0  0  0  0  0  0  0  0
  -13.0688   -9.7353   11.3612 H   0  0  0  0  0  0  0  0  0  0  0  0
  -12.8586   -9.3131    9.6597 H   0  0  0  0  0  0  0  0  0  0  0  0
  -13.0111  -10.9947   10.1358 H   0  0  0  0  0  0  0  0  0  0  0  0
   -9.5635   -8.8006    9.9025 H   0  0  0  0  0  0  0  0  0  0  0  0
   -9.8132   -9.8373    8.3219 H   0  0  0  0  0  0  0  0  0  0  0  0
  -10.2121   -7.5429    5.6997 H   0  0  0  0  0  0  0  0  0  0  0  0
  -10.5423   -6.3725    6.8149 H   0  0  0  0  0  0  0  0  0  0  0  0
   -9.0484   -4.7919    5.1543 H   0  0  0  0  0  0  0  0  0  0  0  0
  -10.5527   -4.6357    5.8764 H   0  0  0  0  0  0  0  0  0  0  0  0
   -8.1525   -3.8640    6.8838 H   0  0  0  0  0  0  0  0  0  0  0  0
   -9.4160   -4.1732    8.0147 H   0  0  0  0  0  0  0  0  0  0  0  0
   -7.4603   -5.9433    6.6836 H   0  0  0  0  0  0  0  0  0  0  0  0
   -7.5168   -5.4914    8.3545 H   0  0  0  0  0  0  0  0  0  0  0  0
  -12.2060  -19.4135   18.6514 H   0  0  0  0  0  0  0  0  0  0  0  0
  -10.6815  -19.4169   17.7519 H   0  0  0  0  0  0  0  0  0  0  0  0
  -13.5275  -19.4266   16.7650 H   0  0  0  0  0  0  0  0  0  0  0  0
  -12.1086  -20.1578   16.0438 H   0  0  0  0  0  0  0  0  0  0  0  0
  -12.9361  -17.6069   15.2969 H   0  0  0  0  0  0  0  0  0  0  0  0
  -11.2829  -18.0332   15.2232 H   0  0  0  0  0  0  0  0  0  0  0  0
  1  2  1  0
  2  3  1  0
  3  4  1  0
  4  5  2  0
  4  6  1  0
  6  7  1  0
  7  8  1  0
  8  9  1  0
  9 10  2  0
  9 11  1  0
 11 12  1  0
 12 13  1  0
 13 14  1  0
 13 15  1  0
 15 16  1  0
 16 17  1  0
 17 18  1  0
 18 19  1  0
 19 20  1  0
  6 21  1  0
 21 22  1  0
 22 23  1  0
 23  6  1  0
 20 16  1  0
  1 24  1  0
  1 25  1  0
  1 26  1  0
  2 27  1  0
  2 28  1  0
  7 29  1  0
  7 30  1  0
  8 31  1  0
 11 32  1  0
 12 33  1  0
 12 34  1  0
 13 35  1  0
 14 36  1  0
 14 37  1  0
 14 38  1  0
 15 39  1  0
 15 40  1  0
 17 41  1  0
 17 42  1  0
 18 43  1  0
 18 44  1  0
 19 45  1  0
 19 46  1  0
 20 47  1  0
 20 48  1  0
 21 49  1  0
 21 50  1  0
 22 51  1  0
 22 52  1  0
 23 53  1  0
 23 54  1  0
M  END
>  <Energy>  (196) 
1577.1325000380484

>  <compound_id>  (196) 
22611

>  <target_id>  (196) 
1

>  <reference_id>  (196) 
123

>  <inspiration_ids>  (196) 
[123, 99]

>  <energy_score>  (196) 
1601.6397835317407

>  <distance_score>  (196) 
12.642722745662308

>  <path>  (196) 
/opt/xchem-fragalysis-2/maxwin/BulkDock/SCRATCH/511015/C22611-P123/C22611-P123.minimised.mol

>  <scratch_subdir>  (196) 
/opt/xchem-fragalysis-2/maxwin/BulkDock/SCRATCH/511015/C22611-P123

>  <fragmenstein_runtime>  (196) 
33.867664098739624

>  <fragmenstein_outcome>  (196) 
too moved

>  <fragmenstein_mode>  (196) 
expansion

>  <fragmenstein_error>  (196) 


$$$$
C22611-P99
     RDKit          3D

 54 55  0  0  0  0  0  0  0  0999 V2000
  -14.5357  -21.5165   23.9255 C   0  0  0  0  0  0  0  0  0  0  0  0
  -15.1361  -20.2000   24.7541 C   0  0  0  0  0  0  0  0  0  0  0  0
  -14.4573  -18.5409   25.4498 O   0  0  0  0  0  0  0  0  0  0  0  0
  -13.3710  -17.9743   24.3472 C   0  0  0  0  0  0  0  0  0  0  0  0
  -13.1924  -18.8111   23.5499 O   0  0  0  0  0  0  0  0  0  0  0  0
  -12.1876  -16.1681   24.1838 C   0  0  0  0  0  0  0  0  0  0  0  0
  -11.3477  -15.1430   22.6407 C   0  0  0  0  0  0  0  0  0  0  0  0
  -10.7941  -13.5521   21.4056 N   0  0  0  0  0  0  0  0  0  0  0  0
   -9.4528  -13.4917   19.9341 C   0  0  0  0  0  0  0  0  0  0  0  0
   -8.7348  -14.3994   19.6716 O   0  0  0  0  0  0  0  0  0  0  0  0
   -9.4436  -12.0273   18.8683 N   0  0  0  0  0  0  0  0  0  0  0  0
   -8.7269  -11.7364   17.5652 C   0  0  0  0  0  0  0  0  0  0  0  0
   -8.1537  -10.2512   17.2276 C   0  0  0  0  0  0  0  0  0  0  0  0
   -6.7880  -10.0805   17.8982 C   0  0  0  0  0  0  0  0  0  0  0  0
   -7.9631   -9.9376   15.6734 C   0  0  0  0  0  0  0  0  0  0  0  0
   -6.9592   -8.9000   15.3282 N   0  0  0  0  0  0  0  0  0  0  0  0
   -7.3126   -7.5140   15.6169 C   0  0  0  0  0  0  0  0  0  0  0  0
   -6.2581   -6.7017   14.8575 C   0  0  0  0  0  0  0  0  0  0  0  0
   -5.7101   -7.6390   13.7846 C   0  0  0  0  0  0  0  0  0  0  0  0
   -6.5074   -8.9318   13.9350 C   0  0  0  0  0  0  0  0  0  0  0  0
  -10.6007  -17.0776   24.4697 C   0  0  0  0  0  0  0  0  0  0  0  0
  -10.0467  -16.3094   25.9401 C   0  0  0  0  0  0  0  0  0  0  0  0
  -11.6776  -15.3302   25.9222 C   0  0  0  0  0  0  0  0  0  0  0  0
  -13.4431  -21.6201   23.8904 H   0  0  0  0  0  0  0  0  0  0  0  0
  -14.9189  -22.4317   24.4119 H   0  0  0  0  0  0  0  0  0  0  0  0
  -14.9917  -21.6627   22.9485 H   0  0  0  0  0  0  0  0  0  0  0  0
  -15.5787  -20.7636   25.5452 H   0  0  0  0  0  0  0  0  0  0  0  0
  -16.1328  -20.0087   24.2885 H   0  0  0  0  0  0  0  0  0  0  0  0
  -11.8648  -15.8335   21.9286 H   0  0  0  0  0  0  0  0  0  0  0  0
  -11.9159  -14.4719   23.1829 H   0  0  0  0  0  0  0  0  0  0  0  0
  -11.3236  -12.7510   21.3973 H   0  0  0  0  0  0  0  0  0  0  0  0
  -10.0452  -11.3186   19.2839 H   0  0  0  0  0  0  0  0  0  0  0  0
   -9.4736  -11.9731   16.7990 H   0  0  0  0  0  0  0  0  0  0  0  0
   -7.9253  -12.4773   17.4766 H   0  0  0  0  0  0  0  0  0  0  0  0
   -8.8499   -9.5156   17.6483 H   0  0  0  0  0  0  0  0  0  0  0  0
   -6.8147  -10.3686   18.9486 H   0  0  0  0  0  0  0  0  0  0  0  0
   -6.0292  -10.7055   17.4139 H   0  0  0  0  0  0  0  0  0  0  0  0
   -6.4424   -9.0436   17.8817 H   0  0  0  0  0  0  0  0  0  0  0  0
   -7.6360  -10.8799   15.2140 H   0  0  0  0  0  0  0  0  0  0  0  0
   -8.9390   -9.6997   15.2325 H   0  0  0  0  0  0  0  0  0  0  0  0
   -8.3237   -7.2754   15.2747 H   0  0  0  0  0  0  0  0  0  0  0  0
   -7.2728   -7.2890   16.6869 H   0  0  0  0  0  0  0  0  0  0  0  0
   -6.6820   -5.7885   14.4284 H   0  0  0  0  0  0  0  0  0  0  0  0
   -5.4468   -6.4020   15.5315 H   0  0  0  0  0  0  0  0  0  0  0  0
   -4.6456   -7.8246   13.9717 H   0  0  0  0  0  0  0  0  0  0  0  0
   -5.7981   -7.2162   12.7807 H   0  0  0  0  0  0  0  0  0  0  0  0
   -7.3506   -8.9632   13.2401 H   0  0  0  0  0  0  0  0  0  0  0  0
   -5.8758   -9.8041   13.7369 H   0  0  0  0  0  0  0  0  0  0  0  0
  -11.1523  -17.9133   24.7113 H   0  0  0  0  0  0  0  0  0  0  0  0
  -10.0697  -17.6982   23.8607 H   0  0  0  0  0  0  0  0  0  0  0  0
   -9.0702  -15.8080   25.9003 H   0  0  0  0  0  0  0  0  0  0  0  0
   -9.9370  -17.0144   26.7614 H   0  0  0  0  0  0  0  0  0  0  0  0
  -11.9063  -15.4839   26.9702 H   0  0  0  0  0  0  0  0  0  0  0  0
  -11.8052  -14.2360   25.9775 H   0  0  0  0  0  0  0  0  0  0  0  0
  1  2  1  0
  2  3  1  0
  3  4  1  0
  4  5  2  0
  4  6  1  0
  6  7  1  0
  7  8  1  0
  8  9  1  0
  9 10  2  0
  9 11  1  0
 11 12  1  0
 12 13  1  0
 13 14  1  0
 13 15  1  0
 15 16  1  0
 16 17  1  0
 17 18  1  0
 18 19  1  0
 19 20  1  0
  6 21  1  0
 21 22  1  0
 22 23  1  0
 23  6  1  0
 20 16  1  0
  1 24  1  0
  1 25  1  0
  1 26  1  0
  2 27  1  0
  2 28  1  0
  7 29  1  0
  7 30  1  0
  8 31  1  0
 11 32  1  0
 12 33  1  0
 12 34  1  0
 13 35  1  0
 14 36  1  0
 14 37  1  0
 14 38  1  0
 15 39  1  0
 15 40  1  0
 17 41  1  0
 17 42  1  0
 18 43  1  0
 18 44  1  0
 19 45  1  0
 19 46  1  0
 20 47  1  0
 20 48  1  0
 21 49  1  0
 21 50  1  0
 22 51  1  0
 22 52  1  0
 23 53  1  0
 23 54  1  0
M  END
>  <Energy>  (197) 
748.33864739584999

>  <compound_id>  (197) 
22611

>  <target_id>  (197) 
1

>  <reference_id>  (197) 
99

>  <inspiration_ids>  (197) 
[123, 99]

>  <energy_score>  (197) 
772.8459308894924

>  <distance_score>  (197) 
10.997050491280577

>  <path>  (197) 
/opt/xchem-fragalysis-2/maxwin/BulkDock/SCRATCH/511015/C22611-P99/C22611-P99.minimised.mol

>  <scratch_subdir>  (197) 
/opt/xchem-fragalysis-2/maxwin/BulkDock/SCRATCH/511015/C22611-P99

>  <fragmenstein_runtime>  (197) 
53.64345669746399

>  <fragmenstein_outcome>  (197) 
too moved

>  <fragmenstein_mode>  (197) 
expansion

>  <fragmenstein_error>  (197) 


$$$$
C28272-P123
     RDKit          3D

 32 34  0  0  0  0  0  0  0  0999 V2000
   -7.0821   -8.2168    8.2831 O   0  0  0  0  0  0  0  0  0  0  0  0
   -7.0908   -7.3444    9.1549 C   0  0  0  0  0  0  0  0  0  0  0  0
   -7.0581   -7.9394   10.4231 O   0  0  0  0  0  0  0  0  0  0  0  0
   -8.3391   -8.8543   11.4525 C   0  0  0  0  0  0  0  0  0  0  0  0
   -8.8471   -9.6578   12.9783 C   0  0  0  0  0  0  0  0  0  0  0  0
   -9.8294  -10.7958   12.9819 N   0  0  0  0  0  0  0  0  0  0  0  0
  -11.0813  -10.6783   13.5425 C   0  0  0  0  0  0  0  0  0  0  0  0
  -11.7585   -9.6805   13.7089 O   0  0  0  0  0  0  0  0  0  0  0  0
  -11.5241  -12.0188   13.9950 C   0  0  0  0  0  0  0  0  0  0  0  0
  -12.6099  -12.4293   14.7765 C   0  0  0  0  0  0  0  0  0  0  0  0
  -12.7954  -13.8002   15.0241 C   0  0  0  0  0  0  0  0  0  0  0  0
  -11.9071  -14.7337   14.4671 C   0  0  0  0  0  0  0  0  0  0  0  0
  -10.7656  -14.2948   13.7638 C   0  0  0  0  0  0  0  0  0  0  0  0
  -10.5865  -12.9256   13.5663 C   0  0  0  0  0  0  0  0  0  0  0  0
   -9.4803  -12.1366   12.9707 C   0  0  0  0  0  0  0  0  0  0  0  0
   -8.4310  -12.6490   12.6272 O   0  0  0  0  0  0  0  0  0  0  0  0
   -7.2963   -5.4320    8.6627 C   0  0  0  0  0  0  0  0  0  0  0  0
   -7.1752   -4.8553    7.1860 C   0  0  0  0  0  0  0  0  0  0  0  0
   -7.6251   -3.6279    6.9381 N   0  0  0  0  0  0  0  0  0  0  0  0
   -8.4084   -3.4356    7.9755 N   0  0  0  0  0  0  0  0  0  0  0  0
   -8.3702   -4.4923    8.8449 C   0  0  0  0  0  0  0  0  0  0  0  0
   -7.7385   -8.3761   12.2421 H   0  0  0  0  0  0  0  0  0  0  0  0
   -9.2414   -8.7891   10.8900 H   0  0  0  0  0  0  0  0  0  0  0  0
   -9.2879   -8.9161   13.6451 H   0  0  0  0  0  0  0  0  0  0  0  0
   -8.0332   -9.9947   13.6174 H   0  0  0  0  0  0  0  0  0  0  0  0
  -13.3128  -11.6951   15.1603 H   0  0  0  0  0  0  0  0  0  0  0  0
  -13.6463  -14.1386   15.6104 H   0  0  0  0  0  0  0  0  0  0  0  0
  -12.0646  -15.7984   14.6285 H   0  0  0  0  0  0  0  0  0  0  0  0
  -10.0281  -15.0029   13.3960 H   0  0  0  0  0  0  0  0  0  0  0  0
   -6.7803   -5.3695    6.3217 H   0  0  0  0  0  0  0  0  0  0  0  0
   -9.0556   -2.6519    7.9800 H   0  0  0  0  0  0  0  0  0  0  0  0
   -9.2287   -4.5164    9.4937 H   0  0  0  0  0  0  0  0  0  0  0  0
  1  2  2  0
  2  3  1  0
  3  4  1  0
  4  5  1  0
  5  6  1  0
  6  7  1  0
  7  8  2  0
  7  9  1  0
  9 10  2  0
 10 11  1  0
 11 12  2  0
 12 13  1  0
 13 14  2  0
 14 15  1  0
 15 16  2  0
  2 17  1  0
 17 18  1  0
 18 19  2  0
 19 20  1  0
 20 21  1  0
 15  6  1  0
 21 17  2  0
 14  9  1  0
  4 22  1  0
  4 23  1  0
  5 24  1  0
  5 25  1  0
 10 26  1  0
 11 27  1  0
 12 28  1  0
 13 29  1  0
 18 30  1  0
 20 31  1  0
 21 32  1  0
M  END
>  <Energy>  (198) 
308.30449054785106

>  <compound_id>  (198) 
28272

>  <target_id>  (198) 
1

>  <reference_id>  (198) 
123

>  <inspiration_ids>  (198) 
[123, 99]

>  <energy_score>  (198) 
282.48340510715525

>  <distance_score>  (198) 
13.794119139740175

>  <path>  (198) 
/opt/xchem-fragalysis-2/maxwin/BulkDock/SCRATCH/511015/C28272-P123/C28272-P123.minimised.mol

>  <scratch_subdir>  (198) 
/opt/xchem-fragalysis-2/maxwin/BulkDock/SCRATCH/511015/C28272-P123

>  <fragmenstein_runtime>  (198) 
46.24691367149353

>  <fragmenstein_outcome>  (198) 
too moved

>  <fragmenstein_mode>  (198) 
expansion

>  <fragmenstein_error>  (198) 


$$$$
C28272-P99
     RDKit          3D

 32 34  0  0  0  0  0  0  0  0999 V2000
   -3.7587   -4.0832   10.4726 O   0  0  0  0  0  0  0  0  0  0  0  0
   -4.1704   -5.0610   10.2387 C   0  0  0  0  0  0  0  0  0  0  0  0
   -5.1969   -5.5425   11.7262 O   0  0  0  0  0  0  0  0  0  0  0  0
   -5.3510   -4.3890   13.4454 C   0  0  0  0  0  0  0  0  0  0  0  0
   -6.4644   -4.4175   15.0604 C   0  0  0  0  0  0  0  0  0  0  0  0
   -6.6486   -5.5844   16.4048 N   0  0  0  0  0  0  0  0  0  0  0  0
   -6.8376   -6.9166   16.1886 C   0  0  0  0  0  0  0  0  0  0  0  0
   -7.2771   -7.4192   15.1719 O   0  0  0  0  0  0  0  0  0  0  0  0
   -6.7214   -7.9443   17.1940 C   0  0  0  0  0  0  0  0  0  0  0  0
   -6.5974   -9.6298   16.8664 C   0  0  0  0  0  0  0  0  0  0  0  0
   -7.1814  -10.5772   17.7067 C   0  0  0  0  0  0  0  0  0  0  0  0
   -8.0854   -9.4916   18.7626 C   0  0  0  0  0  0  0  0  0  0  0  0
   -8.1636   -7.9465   18.9400 C   0  0  0  0  0  0  0  0  0  0  0  0
   -7.3269   -7.1424   18.1253 C   0  0  0  0  0  0  0  0  0  0  0  0
   -7.1986   -5.5999   17.6675 C   0  0  0  0  0  0  0  0  0  0  0  0
   -7.6267   -4.6689   18.3214 O   0  0  0  0  0  0  0  0  0  0  0  0
   -3.7286   -5.3815    8.7762 C   0  0  0  0  0  0  0  0  0  0  0  0
   -3.3075   -4.8345    7.1477 C   0  0  0  0  0  0  0  0  0  0  0  0
   -3.8567   -3.7897    6.4153 N   0  0  0  0  0  0  0  0  0  0  0  0
   -4.3891   -3.2229    7.4132 N   0  0  0  0  0  0  0  0  0  0  0  0
   -3.4337   -3.7656    8.2951 C   0  0  0  0  0  0  0  0  0  0  0  0
   -4.3540   -4.4297   13.8991 H   0  0  0  0  0  0  0  0  0  0  0  0
   -5.6340   -3.3954   13.3663 H   0  0  0  0  0  0  0  0  0  0  0  0
   -6.1538   -3.5160   15.6026 H   0  0  0  0  0  0  0  0  0  0  0  0
   -7.4966   -4.2701   14.7110 H   0  0  0  0  0  0  0  0  0  0  0  0
   -6.1143  -10.1009   16.0394 H   0  0  0  0  0  0  0  0  0  0  0  0
   -7.2125  -11.6515   17.8135 H   0  0  0  0  0  0  0  0  0  0  0  0
   -8.8971  -10.0285   19.1694 H   0  0  0  0  0  0  0  0  0  0  0  0
   -8.9024   -7.4887   19.5941 H   0  0  0  0  0  0  0  0  0  0  0  0
   -2.6897   -5.3860    6.4615 H   0  0  0  0  0  0  0  0  0  0  0  0
   -4.7668   -2.2814    7.3411 H   0  0  0  0  0  0  0  0  0  0  0  0
   -3.0736   -2.9068    8.8493 H   0  0  0  0  0  0  0  0  0  0  0  0
  1  2  2  0
  2  3  1  0
  3  4  1  0
  4  5  1  0
  5  6  1  0
  6  7  1  0
  7  8  2  0
  7  9  1  0
  9 10  2  0
 10 11  1  0
 11 12  2  0
 12 13  1  0
 13 14  2  0
 14 15  1  0
 15 16  2  0
  2 17  1  0
 17 18  1  0
 18 19  2  0
 19 20  1  0
 20 21  1  0
 15  6  1  0
 21 17  2  0
 14  9  1  0
  4 22  1  0
  4 23  1  0
  5 24  1  0
  5 25  1  0
 10 26  1  0
 11 27  1  0
 12 28  1  0
 13 29  1  0
 18 30  1  0
 20 31  1  0
 21 32  1  0
M  END
>  <Energy>  (199) 
778.57489667739344

>  <compound_id>  (199) 
28272

>  <target_id>  (199) 
1

>  <reference_id>  (199) 
99

>  <inspiration_ids>  (199) 
[123, 99]

>  <energy_score>  (199) 
752.7538112366858

>  <distance_score>  (199) 
13.675897802533264

>  <path>  (199) 
/opt/xchem-fragalysis-2/maxwin/BulkDock/SCRATCH/511015/C28272-P99/C28272-P99.minimised.mol

>  <scratch_subdir>  (199) 
/opt/xchem-fragalysis-2/maxwin/BulkDock/SCRATCH/511015/C28272-P99

>  <fragmenstein_runtime>  (199) 
33.71703314781189

>  <fragmenstein_outcome>  (199) 
too moved

>  <fragmenstein_mode>  (199) 
expansion

>  <fragmenstein_error>  (199) 


$$$$
C28204-P123
     RDKit          3D

 35 37  0  0  0  0  0  0  0  0999 V2000
   -6.7339   -4.1324   16.6827 O   0  0  0  0  0  0  0  0  0  0  0  0
   -6.8990   -3.0148   17.1778 C   0  0  0  0  0  0  0  0  0  0  0  0
   -6.6812   -1.8444   16.4221 O   0  0  0  0  0  0  0  0  0  0  0  0
   -6.3873   -2.0813   14.9809 C   0  0  0  0  0  0  0  0  0  0  0  0
   -5.9330   -0.6791   14.0293 C   0  0  0  0  0  0  0  0  0  0  0  0
   -6.0029   -0.4423   12.1754 C   0  0  0  0  0  0  0  0  0  0  0  0
   -4.6694   -0.4427   11.4037 C   0  0  0  0  0  0  0  0  0  0  0  0
   -4.7193   -0.4486    9.9458 N   0  0  0  0  0  0  0  0  0  0  0  0
   -6.1315   -0.3917    9.6914 N   0  0  0  0  0  0  0  0  0  0  0  0
   -6.8857   -0.3058   10.9428 C   0  0  0  0  0  0  0  0  0  0  0  0
   -7.3812   -2.7835   18.6775 C   0  0  0  0  0  0  0  0  0  0  0  0
   -6.5128   -3.3540   19.8669 C   0  0  0  0  0  0  0  0  0  0  0  0
   -7.8415   -3.4917   20.6873 C   0  0  0  0  0  0  0  0  0  0  0  0
   -7.9704   -4.6064   21.7371 N   0  0  0  0  0  0  0  0  0  0  0  0
   -6.9783   -4.9009   22.6476 C   0  0  0  0  0  0  0  0  0  0  0  0
   -7.5896   -5.4149   23.7708 C   0  0  0  0  0  0  0  0  0  0  0  0
   -8.9490   -5.4449   23.4500 C   0  0  0  0  0  0  0  0  0  0  0  0
   -9.1958   -4.9764   22.2176 N   0  0  0  0  0  0  0  0  0  0  0  0
   -8.4984   -3.7396   19.2928 C   0  0  0  0  0  0  0  0  0  0  0  0
   -5.6111   -2.8381   14.9869 H   0  0  0  0  0  0  0  0  0  0  0  0
   -7.2659   -2.5866   14.5925 H   0  0  0  0  0  0  0  0  0  0  0  0
   -6.2611    0.3036   14.4506 H   0  0  0  0  0  0  0  0  0  0  0  0
   -4.9357   -0.6222   14.4957 H   0  0  0  0  0  0  0  0  0  0  0  0
   -3.8163   -0.3877   12.0057 H   0  0  0  0  0  0  0  0  0  0  0  0
   -6.4809   -0.3976    8.7380 H   0  0  0  0  0  0  0  0  0  0  0  0
   -7.9457   -0.1952   10.7510 H   0  0  0  0  0  0  0  0  0  0  0  0
   -7.6331   -1.7242   18.8387 H   0  0  0  0  0  0  0  0  0  0  0  0
   -6.0065   -4.2961   19.6480 H   0  0  0  0  0  0  0  0  0  0  0  0
   -5.7840   -2.6522   20.2824 H   0  0  0  0  0  0  0  0  0  0  0  0
   -8.1556   -2.5394   21.1389 H   0  0  0  0  0  0  0  0  0  0  0  0
   -5.9446   -4.6654   22.4407 H   0  0  0  0  0  0  0  0  0  0  0  0
   -7.1101   -5.7263   24.6862 H   0  0  0  0  0  0  0  0  0  0  0  0
   -9.7771   -5.7722   24.0650 H   0  0  0  0  0  0  0  0  0  0  0  0
   -8.4523   -4.7768   18.9386 H   0  0  0  0  0  0  0  0  0  0  0  0
   -9.5244   -3.3755   19.1899 H   0  0  0  0  0  0  0  0  0  0  0  0
  1  2  2  0
  2  3  1  0
  3  4  1  0
  4  5  1  0
  5  6  1  0
  6  7  1  0
  7  8  2  0
  8  9  1  0
  9 10  1  0
  2 11  1  0
 11 12  1  0
 12 13  1  0
 13 14  1  0
 14 15  1  0
 15 16  2  0
 16 17  1  0
 17 18  2  0
 13 19  1  0
 10  6  2  0
 19 11  1  0
 18 14  1  0
  4 20  1  0
  4 21  1  0
  5 22  1  0
  5 23  1  0
  7 24  1  0
  9 25  1  0
 10 26  1  0
 11 27  1  0
 12 28  1  0
 12 29  1  0
 13 30  1  0
 15 31  1  0
 16 32  1  0
 17 33  1  0
 19 34  1  0
 19 35  1  0
M  END
>  <Energy>  (200) 
141.11572157017508

>  <compound_id>  (200) 
28204

>  <target_id>  (200) 
1

>  <reference_id>  (200) 
123

>  <inspiration_ids>  (200) 
[123, 99]

>  <energy_score>  (200) 
81.87557613192462

>  <distance_score>  (200) 
14.333867081332189

>  <path>  (200) 
/opt/xchem-fragalysis-2/maxwin/BulkDock/SCRATCH/511015/C28204-P123/C28204-P123.minimised.mol

>  <scratch_subdir>  (200) 
/opt/xchem-fragalysis-2/maxwin/BulkDock/SCRATCH/511015/C28204-P123

>  <fragmenstein_runtime>  (200) 
26.422422170639038

>  <fragmenstein_outcome>  (200) 
too moved

>  <fragmenstein_mode>  (200) 
expansion

>  <fragmenstein_error>  (200) 


$$$$
C28204-P99
     RDKit          3D

 35 37  0  0  0  0  0  0  0  0999 V2000
   -6.0404   -8.0840   10.0894 O   0  0  0  0  0  0  0  0  0  0  0  0
   -5.2344   -7.4225   10.7627 C   0  0  0  0  0  0  0  0  0  0  0  0
   -4.8029   -6.1099   10.3817 O   0  0  0  0  0  0  0  0  0  0  0  0
   -3.8529   -5.2782    9.1428 C   0  0  0  0  0  0  0  0  0  0  0  0
   -3.8440   -4.0173    7.7797 C   0  0  0  0  0  0  0  0  0  0  0  0
   -5.0418   -3.2427    7.1719 C   0  0  0  0  0  0  0  0  0  0  0  0
   -5.0540   -1.8405    6.9260 C   0  0  0  0  0  0  0  0  0  0  0  0
   -6.1951   -1.4020    6.3919 N   0  0  0  0  0  0  0  0  0  0  0  0
   -6.9488   -2.5073    6.3110 N   0  0  0  0  0  0  0  0  0  0  0  0
   -6.2887   -3.6325    6.7110 C   0  0  0  0  0  0  0  0  0  0  0  0
   -4.7268   -8.0183   12.1183 C   0  0  0  0  0  0  0  0  0  0  0  0
   -5.0469   -7.3109   13.4520 C   0  0  0  0  0  0  0  0  0  0  0  0
   -5.0365   -8.7346   14.0969 C   0  0  0  0  0  0  0  0  0  0  0  0
   -6.0090   -8.8168   15.2131 N   0  0  0  0  0  0  0  0  0  0  0  0
   -7.2995   -8.4298   14.9864 C   0  0  0  0  0  0  0  0  0  0  0  0
   -7.4868   -7.3681   15.8342 C   0  0  0  0  0  0  0  0  0  0  0  0
   -6.5060   -7.5490   16.7996 C   0  0  0  0  0  0  0  0  0  0  0  0
   -5.6113   -8.4765   16.4555 N   0  0  0  0  0  0  0  0  0  0  0  0
   -5.4825   -9.2538   12.7106 C   0  0  0  0  0  0  0  0  0  0  0  0
   -3.3635   -4.6420    9.7593 H   0  0  0  0  0  0  0  0  0  0  0  0
   -3.2486   -6.0472    8.7984 H   0  0  0  0  0  0  0  0  0  0  0  0
   -3.1930   -3.2124    8.1436 H   0  0  0  0  0  0  0  0  0  0  0  0
   -3.2636   -4.4771    6.9766 H   0  0  0  0  0  0  0  0  0  0  0  0
   -4.2653   -1.1247    7.1230 H   0  0  0  0  0  0  0  0  0  0  0  0
   -7.8997   -2.4287    5.9628 H   0  0  0  0  0  0  0  0  0  0  0  0
   -6.7921   -4.5856    6.6468 H   0  0  0  0  0  0  0  0  0  0  0  0
   -3.6680   -8.3031   12.0815 H   0  0  0  0  0  0  0  0  0  0  0  0
   -4.3034   -6.6500   13.9015 H   0  0  0  0  0  0  0  0  0  0  0  0
   -5.9924   -6.7613   13.4196 H   0  0  0  0  0  0  0  0  0  0  0  0
   -4.0304   -9.0577   14.3907 H   0  0  0  0  0  0  0  0  0  0  0  0
   -7.8608   -8.7936   14.1399 H   0  0  0  0  0  0  0  0  0  0  0  0
   -8.2913   -6.6450   15.8243 H   0  0  0  0  0  0  0  0  0  0  0  0
   -6.4161   -6.9853   17.7028 H   0  0  0  0  0  0  0  0  0  0  0  0
   -6.5539   -9.2655   12.4908 H   0  0  0  0  0  0  0  0  0  0  0  0
   -5.0671  -10.2261   12.4283 H   0  0  0  0  0  0  0  0  0  0  0  0
  1  2  2  0
  2  3  1  0
  3  4  1  0
  4  5  1  0
  5  6  1  0
  6  7  1  0
  7  8  2  0
  8  9  1  0
  9 10  1  0
  2 11  1  0
 11 12  1  0
 12 13  1  0
 13 14  1  0
 14 15  1  0
 15 16  2  0
 16 17  1  0
 17 18  2  0
 13 19  1  0
 10  6  2  0
 19 11  1  0
 18 14  1  0
  4 20  1  0
  4 21  1  0
  5 22  1  0
  5 23  1  0
  7 24  1  0
  9 25  1  0
 10 26  1  0
 11 27  1  0
 12 28  1  0
 12 29  1  0
 13 30  1  0
 15 31  1  0
 16 32  1  0
 17 33  1  0
 19 34  1  0
 19 35  1  0
M  END
>  <Energy>  (201) 
175.13043884779418

>  <compound_id>  (201) 
28204

>  <target_id>  (201) 
1

>  <reference_id>  (201) 
99

>  <inspiration_ids>  (201) 
[123, 99]

>  <energy_score>  (201) 
115.8902934095454

>  <distance_score>  (201) 
14.514033868764725

>  <path>  (201) 
/opt/xchem-fragalysis-2/maxwin/BulkDock/SCRATCH/511015/C28204-P99/C28204-P99.minimised.mol

>  <scratch_subdir>  (201) 
/opt/xchem-fragalysis-2/maxwin/BulkDock/SCRATCH/511015/C28204-P99

>  <fragmenstein_runtime>  (201) 
17.631659984588623

>  <fragmenstein_outcome>  (201) 
too moved

>  <fragmenstein_mode>  (201) 
expansion

>  <fragmenstein_error>  (201) 


$$$$
C28291-P123
     RDKit          3D

 41 43  0  0  0  0  0  0  0  0999 V2000
   -9.4717  -12.7349   14.5198 O   0  0  0  0  0  0  0  0  0  0  0  0
   -8.8256  -12.0917   15.3806 C   0  0  0  0  0  0  0  0  0  0  0  0
   -8.4128  -10.8209   14.8331 O   0  0  0  0  0  0  0  0  0  0  0  0
   -8.3889  -10.4339   13.4065 C   0  0  0  0  0  0  0  0  0  0  0  0
   -6.9798  -10.6214   12.7563 C   0  0  0  0  0  0  0  0  0  0  0  0
   -6.3308   -9.6222   11.8762 C   0  0  0  0  0  0  0  0  0  0  0  0
   -6.0747   -8.2746   12.1461 C   0  0  0  0  0  0  0  0  0  0  0  0
   -5.3081   -7.7062   11.2281 N   0  0  0  0  0  0  0  0  0  0  0  0
   -4.9354   -8.7264   10.4526 N   0  0  0  0  0  0  0  0  0  0  0  0
   -5.5594   -9.8875   10.7626 C   0  0  0  0  0  0  0  0  0  0  0  0
   -8.2513  -12.7701   17.2878 C   0  0  0  0  0  0  0  0  0  0  0  0
   -9.4603  -12.9293   18.7245 C   0  0  0  0  0  0  0  0  0  0  0  0
   -8.6363  -14.5609   19.4067 C   0  0  0  0  0  0  0  0  0  0  0  0
   -7.7523  -16.2213   20.4334 C   0  0  0  0  0  0  0  0  0  0  0  0
   -7.6665  -17.5237   21.7297 C   0  0  0  0  0  0  0  0  0  0  0  0
   -7.2872  -18.9892   21.4089 C   0  0  0  0  0  0  0  0  0  0  0  0
   -6.5926  -18.9374   20.0726 C   0  0  0  0  0  0  0  0  0  0  0  0
   -6.7325  -17.5201   19.4072 C   0  0  0  0  0  0  0  0  0  0  0  0
   -7.6382  -12.8369   18.7504 C   0  0  0  0  0  0  0  0  0  0  0  0
   -9.1643  -10.9981   12.8827 H   0  0  0  0  0  0  0  0  0  0  0  0
   -8.6712   -9.3828   13.3983 H   0  0  0  0  0  0  0  0  0  0  0  0
   -6.1916  -10.6386   13.5014 H   0  0  0  0  0  0  0  0  0  0  0  0
   -6.9541  -11.6172   12.2943 H   0  0  0  0  0  0  0  0  0  0  0  0
   -6.3990   -7.6764   12.9820 H   0  0  0  0  0  0  0  0  0  0  0  0
   -4.2182   -8.5666    9.7577 H   0  0  0  0  0  0  0  0  0  0  0  0
   -5.3392  -10.8028   10.2328 H   0  0  0  0  0  0  0  0  0  0  0  0
   -7.6556  -13.6583   17.0163 H   0  0  0  0  0  0  0  0  0  0  0  0
  -10.4567  -12.8877   18.4187 H   0  0  0  0  0  0  0  0  0  0  0  0
   -9.4837  -12.0281   19.2656 H   0  0  0  0  0  0  0  0  0  0  0  0
   -8.7804  -15.3788   18.6610 H   0  0  0  0  0  0  0  0  0  0  0  0
   -6.7555  -16.0058   20.6608 H   0  0  0  0  0  0  0  0  0  0  0  0
   -7.8981  -17.3335   22.7712 H   0  0  0  0  0  0  0  0  0  0  0  0
   -6.5916  -17.4776   21.8925 H   0  0  0  0  0  0  0  0  0  0  0  0
   -6.5589  -19.3507   22.1572 H   0  0  0  0  0  0  0  0  0  0  0  0
   -8.0285  -19.7750   21.4765 H   0  0  0  0  0  0  0  0  0  0  0  0
   -6.9654  -19.7200   19.4035 H   0  0  0  0  0  0  0  0  0  0  0  0
   -5.5252  -19.1589   20.2053 H   0  0  0  0  0  0  0  0  0  0  0  0
   -7.1834  -17.6078   18.4142 H   0  0  0  0  0  0  0  0  0  0  0  0
   -5.6902  -17.2649   19.2517 H   0  0  0  0  0  0  0  0  0  0  0  0
   -7.7251  -11.7798   19.0046 H   0  0  0  0  0  0  0  0  0  0  0  0
   -6.5584  -12.6721   18.9347 H   0  0  0  0  0  0  0  0  0  0  0  0
  1  2  2  0
  2  3  1  0
  3  4  1  0
  4  5  1  0
  5  6  1  0
  6  7  1  0
  7  8  2  0
  8  9  1  0
  9 10  1  0
  2 11  1  0
 11 12  1  0
 12 13  1  0
 13 14  1  0
 14 15  1  0
 15 16  1  0
 16 17  1  0
 17 18  1  0
 13 19  1  0
 10  6  2  0
 19 11  1  0
 18 14  1  0
  4 20  1  0
  4 21  1  0
  5 22  1  0
  5 23  1  0
  7 24  1  0
  9 25  1  0
 10 26  1  0
 11 27  1  0
 12 28  1  0
 12 29  1  0
 13 30  1  0
 14 31  1  0
 15 32  1  0
 15 33  1  0
 16 34  1  0
 16 35  1  0
 17 36  1  0
 17 37  1  0
 18 38  1  0
 18 39  1  0
 19 40  1  0
 19 41  1  0
M  END
>  <Energy>  (202) 
666.47937008564941

>  <compound_id>  (202) 
28291

>  <target_id>  (202) 
1

>  <reference_id>  (202) 
123

>  <inspiration_ids>  (202) 
[123, 99]

>  <energy_score>  (202) 
614.4625413942604

>  <distance_score>  (202) 
12.630234326594806

>  <path>  (202) 
/opt/xchem-fragalysis-2/maxwin/BulkDock/SCRATCH/511015/C28291-P123/C28291-P123.minimised.mol

>  <scratch_subdir>  (202) 
/opt/xchem-fragalysis-2/maxwin/BulkDock/SCRATCH/511015/C28291-P123

>  <fragmenstein_runtime>  (202) 
32.664103269577026

>  <fragmenstein_outcome>  (202) 
too moved

>  <fragmenstein_mode>  (202) 
expansion

>  <fragmenstein_error>  (202) 


$$$$
C28291-P99
     RDKit          3D

 41 43  0  0  0  0  0  0  0  0999 V2000
   -8.8768  -10.5164   14.3264 O   0  0  0  0  0  0  0  0  0  0  0  0
   -7.7299  -10.2003   14.7244 C   0  0  0  0  0  0  0  0  0  0  0  0
   -6.8716   -9.3343   13.4315 O   0  0  0  0  0  0  0  0  0  0  0  0
   -7.0018   -8.7916   11.6596 C   0  0  0  0  0  0  0  0  0  0  0  0
   -6.3378   -7.5636   10.2282 C   0  0  0  0  0  0  0  0  0  0  0  0
   -6.9568   -5.9430    9.2385 C   0  0  0  0  0  0  0  0  0  0  0  0
   -7.4678   -5.2748    7.6336 C   0  0  0  0  0  0  0  0  0  0  0  0
   -8.2452   -4.2192    7.5753 N   0  0  0  0  0  0  0  0  0  0  0  0
   -8.5397   -4.1525    8.8378 N   0  0  0  0  0  0  0  0  0  0  0  0
   -7.6460   -4.8674    9.6505 C   0  0  0  0  0  0  0  0  0  0  0  0
   -6.9707  -10.8851   16.7477 C   0  0  0  0  0  0  0  0  0  0  0  0
   -8.1921  -12.4223   17.2594 C   0  0  0  0  0  0  0  0  0  0  0  0
   -7.9829  -13.6006   18.5889 C   0  0  0  0  0  0  0  0  0  0  0  0
   -8.5404  -15.6069   18.9114 C   0  0  0  0  0  0  0  0  0  0  0  0
   -7.5044  -16.4976   20.5097 C   0  0  0  0  0  0  0  0  0  0  0  0
   -6.6423  -18.0148   20.1506 C   0  0  0  0  0  0  0  0  0  0  0  0
   -6.6293  -18.0326   18.6210 C   0  0  0  0  0  0  0  0  0  0  0  0
   -7.8524  -16.9091   17.7364 C   0  0  0  0  0  0  0  0  0  0  0  0
   -6.5077  -12.4563   17.9804 C   0  0  0  0  0  0  0  0  0  0  0  0
   -8.0525   -8.9841   11.5122 H   0  0  0  0  0  0  0  0  0  0  0  0
   -6.4385   -9.6719   11.3232 H   0  0  0  0  0  0  0  0  0  0  0  0
   -6.2604   -8.2795    9.3967 H   0  0  0  0  0  0  0  0  0  0  0  0
   -5.3787   -7.2405   10.6540 H   0  0  0  0  0  0  0  0  0  0  0  0
   -7.2087   -5.6521    6.6428 H   0  0  0  0  0  0  0  0  0  0  0  0
   -9.3187   -3.5467    9.1075 H   0  0  0  0  0  0  0  0  0  0  0  0
   -7.5046   -4.7401   10.7019 H   0  0  0  0  0  0  0  0  0  0  0  0
   -5.9221  -10.5692   16.8264 H   0  0  0  0  0  0  0  0  0  0  0  0
   -8.0264  -13.0059   16.3783 H   0  0  0  0  0  0  0  0  0  0  0  0
   -9.2629  -12.2647   17.4982 H   0  0  0  0  0  0  0  0  0  0  0  0
   -8.5937  -13.2804   19.4250 H   0  0  0  0  0  0  0  0  0  0  0  0
   -9.5919  -15.6252   19.1072 H   0  0  0  0  0  0  0  0  0  0  0  0
   -7.9319  -16.7638   21.4469 H   0  0  0  0  0  0  0  0  0  0  0  0
   -6.5014  -16.2695   20.5792 H   0  0  0  0  0  0  0  0  0  0  0  0
   -5.6370  -18.0216   20.5928 H   0  0  0  0  0  0  0  0  0  0  0  0
   -7.1472  -18.8795   20.6068 H   0  0  0  0  0  0  0  0  0  0  0  0
   -6.7494  -19.0551   18.2351 H   0  0  0  0  0  0  0  0  0  0  0  0
   -5.5852  -17.7498   18.4164 H   0  0  0  0  0  0  0  0  0  0  0  0
   -8.4760  -17.6429   17.2505 H   0  0  0  0  0  0  0  0  0  0  0  0
   -7.4263  -16.4154   16.8477 H   0  0  0  0  0  0  0  0  0  0  0  0
   -5.7982  -13.0722   17.3953 H   0  0  0  0  0  0  0  0  0  0  0  0
   -5.7632  -12.4144   18.7670 H   0  0  0  0  0  0  0  0  0  0  0  0
  1  2  2  0
  2  3  1  0
  3  4  1  0
  4  5  1  0
  5  6  1  0
  6  7  1  0
  7  8  2  0
  8  9  1  0
  9 10  1  0
  2 11  1  0
 11 12  1  0
 12 13  1  0
 13 14  1  0
 14 15  1  0
 15 16  1  0
 16 17  1  0
 17 18  1  0
 13 19  1  0
 10  6  2  0
 19 11  1  0
 18 14  1  0
  4 20  1  0
  4 21  1  0
  5 22  1  0
  5 23  1  0
  7 24  1  0
  9 25  1  0
 10 26  1  0
 11 27  1  0
 12 28  1  0
 12 29  1  0
 13 30  1  0
 14 31  1  0
 15 32  1  0
 15 33  1  0
 16 34  1  0
 16 35  1  0
 17 36  1  0
 17 37  1  0
 18 38  1  0
 18 39  1  0
 19 40  1  0
 19 41  1  0
M  END
>  <Energy>  (203) 
1092.6398208965957

>  <compound_id>  (203) 
28291

>  <target_id>  (203) 
1

>  <reference_id>  (203) 
99

>  <inspiration_ids>  (203) 
[123, 99]

>  <energy_score>  (203) 
1040.622992205204

>  <distance_score>  (203) 
11.775188566528374

>  <path>  (203) 
/opt/xchem-fragalysis-2/maxwin/BulkDock/SCRATCH/511015/C28291-P99/C28291-P99.minimised.mol

>  <scratch_subdir>  (203) 
/opt/xchem-fragalysis-2/maxwin/BulkDock/SCRATCH/511015/C28291-P99

>  <fragmenstein_runtime>  (203) 
32.891053438186646

>  <fragmenstein_outcome>  (203) 
too moved

>  <fragmenstein_mode>  (203) 
expansion

>  <fragmenstein_error>  (203) 


$$$$
C8710-P123
     RDKit          3D

 43 45  0  0  0  0  0  0  0  0999 V2000
   -8.9948  -12.2539   13.1056 C   0  0  0  0  0  0  0  0  0  0  0  0
   -7.6071  -12.3238   13.7749 C   0  0  0  0  0  0  0  0  0  0  0  0
   -6.7274  -13.3694   13.0530 C   0  0  0  0  0  0  0  0  0  0  0  0
   -6.8756  -10.9355   13.5356 C   0  0  0  0  0  0  0  0  0  0  0  0
   -6.2685  -10.2518   14.3466 O   0  0  0  0  0  0  0  0  0  0  0  0
   -6.9295  -10.5684   12.0999 O   0  0  0  0  0  0  0  0  0  0  0  0
   -6.5580   -9.4535   11.1889 C   0  0  0  0  0  0  0  0  0  0  0  0
   -5.7478   -8.3837   11.5501 C   0  0  0  0  0  0  0  0  0  0  0  0
   -5.7516   -7.1901   10.7372 C   0  0  0  0  0  0  0  0  0  0  0  0
   -6.7012   -6.9805    9.5410 C   0  0  0  0  0  0  0  0  0  0  0  0
   -7.0936   -5.3095    8.8945 N   0  0  0  0  0  0  0  0  0  0  0  0
   -8.5721   -4.5184    8.7849 C   0  0  0  0  0  0  0  0  0  0  0  0
   -8.4240   -3.1489    8.1131 C   0  0  0  0  0  0  0  0  0  0  0  0
   -7.3683   -3.3700    7.0878 C   0  0  0  0  0  0  0  0  0  0  0  0
   -7.0431   -4.8539    7.2063 C   0  0  0  0  0  0  0  0  0  0  0  0
   -7.2422   -8.2490    9.1109 C   0  0  0  0  0  0  0  0  0  0  0  0
   -7.2016   -9.4282    9.9359 C   0  0  0  0  0  0  0  0  0  0  0  0
   -7.8577  -12.7991   15.2138 N   0  0  0  0  0  0  0  0  0  0  0  0
   -8.0868  -14.1201   15.6131 C   0  0  0  0  0  0  0  0  0  0  0  0
   -8.6411  -14.0930   16.8717 C   0  0  0  0  0  0  0  0  0  0  0  0
   -8.6688  -12.7314   17.2010 C   0  0  0  0  0  0  0  0  0  0  0  0
   -8.2461  -11.9485   16.1990 N   0  0  0  0  0  0  0  0  0  0  0  0
   -9.5960  -11.4463   13.5396 H   0  0  0  0  0  0  0  0  0  0  0  0
   -9.5538  -13.1885   13.2310 H   0  0  0  0  0  0  0  0  0  0  0  0
   -8.9225  -12.0648   12.0290 H   0  0  0  0  0  0  0  0  0  0  0  0
   -6.4554  -13.0476   12.0413 H   0  0  0  0  0  0  0  0  0  0  0  0
   -7.2353  -14.3332   12.9432 H   0  0  0  0  0  0  0  0  0  0  0  0
   -5.7926  -13.5368   13.6010 H   0  0  0  0  0  0  0  0  0  0  0  0
   -5.2035   -8.3867   12.4892 H   0  0  0  0  0  0  0  0  0  0  0  0
   -5.2199   -6.3398   11.1316 H   0  0  0  0  0  0  0  0  0  0  0  0
   -9.2140   -4.5144    9.6551 H   0  0  0  0  0  0  0  0  0  0  0  0
   -9.1298   -5.0526    8.0161 H   0  0  0  0  0  0  0  0  0  0  0  0
   -8.1360   -2.3310    8.7654 H   0  0  0  0  0  0  0  0  0  0  0  0
   -9.3682   -2.8497    7.6442 H   0  0  0  0  0  0  0  0  0  0  0  0
   -7.7108   -3.1203    6.0780 H   0  0  0  0  0  0  0  0  0  0  0  0
   -6.4849   -2.7543    7.2907 H   0  0  0  0  0  0  0  0  0  0  0  0
   -6.1266   -4.8931    6.6545 H   0  0  0  0  0  0  0  0  0  0  0  0
   -7.7843   -5.4389    6.6651 H   0  0  0  0  0  0  0  0  0  0  0  0
   -7.9421   -8.2764    8.3064 H   0  0  0  0  0  0  0  0  0  0  0  0
   -7.8169  -10.2767    9.6442 H   0  0  0  0  0  0  0  0  0  0  0  0
   -7.8782  -14.9502   14.9554 H   0  0  0  0  0  0  0  0  0  0  0  0
   -8.9578  -14.9316   17.4751 H   0  0  0  0  0  0  0  0  0  0  0  0
   -9.0031  -12.2683   18.1201 H   0  0  0  0  0  0  0  0  0  0  0  0
  1  2  1  0
  2  3  1  0
  2  4  1  0
  4  5  2  0
  4  6  1  0
  6  7  1  0
  7  8  2  0
  8  9  1  0
  9 10  2  0
 10 11  1  0
 11 12  1  0
 12 13  1  0
 13 14  1  0
 14 15  1  0
 10 16  1  0
 16 17  2  0
  2 18  1  0
 18 19  1  0
 19 20  2  0
 20 21  1  0
 21 22  2  0
 17  7  1  0
 22 18  1  0
 15 11  1  0
  1 23  1  0
  1 24  1  0
  1 25  1  0
  3 26  1  0
  3 27  1  0
  3 28  1  0
  8 29  1  0
  9 30  1  0
 12 31  1  0
 12 32  1  0
 13 33  1  0
 13 34  1  0
 14 35  1  0
 14 36  1  0
 15 37  1  0
 15 38  1  0
 16 39  1  0
 17 40  1  0
 19 41  1  0
 20 42  1  0
 21 43  1  0
M  END
>  <Energy>  (204) 
246.7439022576705

>  <compound_id>  (204) 
8710

>  <target_id>  (204) 
1

>  <reference_id>  (204) 
123

>  <inspiration_ids>  (204) 
[123, 99]

>  <energy_score>  (204) 
162.924144395726

>  <distance_score>  (204) 
12.540205836553662

>  <path>  (204) 
/opt/xchem-fragalysis-2/maxwin/BulkDock/SCRATCH/511015/C8710-P123/C8710-P123.minimised.mol

>  <scratch_subdir>  (204) 
/opt/xchem-fragalysis-2/maxwin/BulkDock/SCRATCH/511015/C8710-P123

>  <fragmenstein_runtime>  (204) 
30.94322371482849

>  <fragmenstein_outcome>  (204) 
too moved

>  <fragmenstein_mode>  (204) 
expansion

>  <fragmenstein_error>  (204) 


$$$$
C8710-P99
     RDKit          3D

 43 45  0  0  0  0  0  0  0  0999 V2000
   -7.2843   -9.9734   18.7527 C   0  0  0  0  0  0  0  0  0  0  0  0
   -6.5457  -11.3839   19.1117 C   0  0  0  0  0  0  0  0  0  0  0  0
   -7.4892  -12.3746   18.3563 C   0  0  0  0  0  0  0  0  0  0  0  0
   -5.2588  -10.8453   17.7972 C   0  0  0  0  0  0  0  0  0  0  0  0
   -4.0799  -11.2057   17.8938 O   0  0  0  0  0  0  0  0  0  0  0  0
   -5.5695   -9.8424   16.3191 O   0  0  0  0  0  0  0  0  0  0  0  0
   -5.5636   -8.8984   14.7586 C   0  0  0  0  0  0  0  0  0  0  0  0
   -5.6325   -7.4632   14.5905 C   0  0  0  0  0  0  0  0  0  0  0  0
   -5.5516   -6.5819   13.1275 C   0  0  0  0  0  0  0  0  0  0  0  0
   -5.3831   -7.0197   11.7207 C   0  0  0  0  0  0  0  0  0  0  0  0
   -5.3098   -6.2008   10.3596 N   0  0  0  0  0  0  0  0  0  0  0  0
   -6.7205   -5.5419    9.3483 C   0  0  0  0  0  0  0  0  0  0  0  0
   -6.4346   -4.3945    7.8201 C   0  0  0  0  0  0  0  0  0  0  0  0
   -4.6327   -3.9250    7.8276 C   0  0  0  0  0  0  0  0  0  0  0  0
   -4.0605   -5.2174    9.2715 C   0  0  0  0  0  0  0  0  0  0  0  0
   -5.3284   -8.4646   11.9496 C   0  0  0  0  0  0  0  0  0  0  0  0
   -5.3983   -9.3780   13.3938 C   0  0  0  0  0  0  0  0  0  0  0  0
   -6.5064  -11.9854   20.9447 N   0  0  0  0  0  0  0  0  0  0  0  0
   -7.4963  -11.6298   22.4548 C   0  0  0  0  0  0  0  0  0  0  0  0
   -6.8278  -11.5275   23.6041 C   0  0  0  0  0  0  0  0  0  0  0  0
   -6.1122  -12.5458   23.2479 C   0  0  0  0  0  0  0  0  0  0  0  0
   -6.2173  -12.8206   21.9771 N   0  0  0  0  0  0  0  0  0  0  0  0
   -6.7294   -9.0851   19.0565 H   0  0  0  0  0  0  0  0  0  0  0  0
   -8.3500   -9.8767   18.9369 H   0  0  0  0  0  0  0  0  0  0  0  0
   -7.3452   -9.8727   17.6611 H   0  0  0  0  0  0  0  0  0  0  0  0
   -7.0300  -12.6928   17.4158 H   0  0  0  0  0  0  0  0  0  0  0  0
   -7.8121  -13.2156   18.9649 H   0  0  0  0  0  0  0  0  0  0  0  0
   -8.4360  -11.9088   18.0503 H   0  0  0  0  0  0  0  0  0  0  0  0
   -5.7417   -6.8313   15.4739 H   0  0  0  0  0  0  0  0  0  0  0  0
   -5.6368   -5.5080   13.3022 H   0  0  0  0  0  0  0  0  0  0  0  0
   -7.4104   -4.9656    9.9434 H   0  0  0  0  0  0  0  0  0  0  0  0
   -7.0410   -6.5512    9.1700 H   0  0  0  0  0  0  0  0  0  0  0  0
   -7.0955   -3.5110    7.7956 H   0  0  0  0  0  0  0  0  0  0  0  0
   -6.7081   -4.8936    6.8746 H   0  0  0  0  0  0  0  0  0  0  0  0
   -4.0439   -4.1583    6.9383 H   0  0  0  0  0  0  0  0  0  0  0  0
   -4.4856   -2.8288    7.9272 H   0  0  0  0  0  0  0  0  0  0  0  0
   -3.5059   -4.5712    9.8277 H   0  0  0  0  0  0  0  0  0  0  0  0
   -3.4083   -5.9174    8.8181 H   0  0  0  0  0  0  0  0  0  0  0  0
   -5.2157   -9.0947   11.0616 H   0  0  0  0  0  0  0  0  0  0  0  0
   -5.3019  -10.4534   13.2249 H   0  0  0  0  0  0  0  0  0  0  0  0
   -8.5627  -11.8305   22.3965 H   0  0  0  0  0  0  0  0  0  0  0  0
   -6.9353  -11.2205   24.6448 H   0  0  0  0  0  0  0  0  0  0  0  0
   -5.4755  -13.1403   23.8545 H   0  0  0  0  0  0  0  0  0  0  0  0
  1  2  1  0
  2  3  1  0
  2  4  1  0
  4  5  2  0
  4  6  1  0
  6  7  1  0
  7  8  2  0
  8  9  1  0
  9 10  2  0
 10 11  1  0
 11 12  1  0
 12 13  1  0
 13 14  1  0
 14 15  1  0
 10 16  1  0
 16 17  2  0
  2 18  1  0
 18 19  1  0
 19 20  2  0
 20 21  1  0
 21 22  2  0
 17  7  1  0
 22 18  1  0
 15 11  1  0
  1 23  1  0
  1 24  1  0
  1 25  1  0
  3 26  1  0
  3 27  1  0
  3 28  1  0
  8 29  1  0
  9 30  1  0
 12 31  1  0
 12 32  1  0
 13 33  1  0
 13 34  1  0
 14 35  1  0
 14 36  1  0
 15 37  1  0
 15 38  1  0
 16 39  1  0
 17 40  1  0
 19 41  1  0
 20 42  1  0
 21 43  1  0
M  END
>  <Energy>  (205) 
897.42184161302566

>  <compound_id>  (205) 
8710

>  <target_id>  (205) 
1

>  <reference_id>  (205) 
99

>  <inspiration_ids>  (205) 
[123, 99]

>  <energy_score>  (205) 
813.602083751084

>  <distance_score>  (205) 
11.635353708887951

>  <path>  (205) 
/opt/xchem-fragalysis-2/maxwin/BulkDock/SCRATCH/511015/C8710-P99/C8710-P99.minimised.mol

>  <scratch_subdir>  (205) 
/opt/xchem-fragalysis-2/maxwin/BulkDock/SCRATCH/511015/C8710-P99

>  <fragmenstein_runtime>  (205) 
33.497427463531494

>  <fragmenstein_outcome>  (205) 
too moved

>  <fragmenstein_mode>  (205) 
expansion

>  <fragmenstein_error>  (205) 


$$$$
C8716-P123
     RDKit          3D

 31 32  0  0  0  0  0  0  0  0999 V2000
   -1.7706   -7.2017   20.7491 N   0  0  0  0  0  0  0  0  0  0  0  0
   -2.5744   -7.2014   19.7960 C   0  0  0  0  0  0  0  0  0  0  0  0
   -3.5267   -6.2183   19.3718 N   0  0  0  0  0  0  0  0  0  0  0  0
   -2.5523   -8.3864   18.9504 C   0  0  0  0  0  0  0  0  0  0  0  0
   -2.3063   -9.7331   19.3605 C   0  0  0  0  0  0  0  0  0  0  0  0
   -2.4406  -10.6036   18.3566 N   0  0  0  0  0  0  0  0  0  0  0  0
   -2.7027   -9.8091   17.2882 N   0  0  0  0  0  0  0  0  0  0  0  0
   -2.7996   -8.4712   17.5850 C   0  0  0  0  0  0  0  0  0  0  0  0
   -3.0935   -7.2547   16.7170 N   0  0  0  0  0  0  0  0  0  0  0  0
   -3.3769   -7.3404   15.0278 S   0  0  0  0  0  0  0  0  0  0  0  0
   -4.0839   -8.5587   14.7382 O   0  0  0  0  0  0  0  0  0  0  0  0
   -3.8817   -6.0637   14.5706 O   0  0  0  0  0  0  0  0  0  0  0  0
   -1.8039   -7.4561   14.4750 N   0  0  0  0  0  0  0  0  0  0  0  0
   -0.9554   -6.2415   14.4139 C   0  0  0  0  0  0  0  0  0  0  0  0
    0.2384   -6.6874   13.5856 C   0  0  0  0  0  0  0  0  0  0  0  0
   -0.3911   -7.5669   12.5271 C   0  0  0  0  0  0  0  0  0  0  0  0
   -1.5208   -8.2823   13.2698 C   0  0  0  0  0  0  0  0  0  0  0  0
   -1.8849   -6.3174   21.2573 H   0  0  0  0  0  0  0  0  0  0  0  0
   -3.9365   -6.5196   18.4556 H   0  0  0  0  0  0  0  0  0  0  0  0
   -4.1107   -6.6251   18.6022 H   0  0  0  0  0  0  0  0  0  0  0  0
   -2.0638  -10.0907   20.3540 H   0  0  0  0  0  0  0  0  0  0  0  0
   -2.7776  -10.2339   16.3737 H   0  0  0  0  0  0  0  0  0  0  0  0
   -2.4626   -6.4667   16.9020 H   0  0  0  0  0  0  0  0  0  0  0  0
   -1.4711   -5.4132   13.9195 H   0  0  0  0  0  0  0  0  0  0  0  0
   -0.6450   -5.9303   15.4149 H   0  0  0  0  0  0  0  0  0  0  0  0
    0.9206   -7.2838   14.2042 H   0  0  0  0  0  0  0  0  0  0  0  0
    0.8083   -5.8560   13.1677 H   0  0  0  0  0  0  0  0  0  0  0  0
   -0.7689   -6.9512   11.7093 H   0  0  0  0  0  0  0  0  0  0  0  0
    0.3226   -8.2744   12.0940 H   0  0  0  0  0  0  0  0  0  0  0  0
   -2.3949   -8.4363   12.6356 H   0  0  0  0  0  0  0  0  0  0  0  0
   -1.1796   -9.2652   13.6144 H   0  0  0  0  0  0  0  0  0  0  0  0
  1  2  2  3
  2  3  1  0
  2  4  1  0
  4  5  1  0
  5  6  2  0
  6  7  1  0
  7  8  1  0
  8  9  1  0
  9 10  1  0
 10 11  2  0
 10 12  2  0
 10 13  1  0
 13 14  1  0
 14 15  1  0
 15 16  1  0
 16 17  1  0
  8  4  2  0
 17 13  1  0
  1 18  1  0
  3 19  1  0
  3 20  1  0
  5 21  1  0
  7 22  1  0
  9 23  1  0
 14 24  1  0
 14 25  1  0
 15 26  1  0
 15 27  1  0
 16 28  1  0
 16 29  1  0
 17 30  1  0
 17 31  1  0
M  END
>  <Energy>  (206) 
19.592475328717441

>  <compound_id>  (206) 
8716

>  <target_id>  (206) 
1

>  <reference_id>  (206) 
123

>  <inspiration_ids>  (206) 
[123, 99]

>  <energy_score>  (206) 
125.82721110798667

>  <distance_score>  (206) 
17.595530524342603

>  <path>  (206) 
/opt/xchem-fragalysis-2/maxwin/BulkDock/SCRATCH/511015/C8716-P123/C8716-P123.minimised.mol

>  <scratch_subdir>  (206) 
/opt/xchem-fragalysis-2/maxwin/BulkDock/SCRATCH/511015/C8716-P123

>  <fragmenstein_runtime>  (206) 
19.95369553565979

>  <fragmenstein_outcome>  (206) 
too moved

>  <fragmenstein_mode>  (206) 
expansion

>  <fragmenstein_error>  (206) 


$$$$
C8716-P99
     RDKit          3D

 31 32  0  0  0  0  0  0  0  0999 V2000
   -0.8589  -11.2369   15.3590 N   0  0  0  0  0  0  0  0  0  0  0  0
   -0.5187  -11.3591   16.5547 C   0  0  0  0  0  0  0  0  0  0  0  0
    0.6717  -11.9096   17.1428 N   0  0  0  0  0  0  0  0  0  0  0  0
   -1.4355  -10.8133   17.5547 C   0  0  0  0  0  0  0  0  0  0  0  0
   -1.8849  -11.3815   18.7851 C   0  0  0  0  0  0  0  0  0  0  0  0
   -2.5061  -10.4887   19.5536 N   0  0  0  0  0  0  0  0  0  0  0  0
   -2.5509   -9.3774   18.7666 N   0  0  0  0  0  0  0  0  0  0  0  0
   -2.0270   -9.5536   17.5094 C   0  0  0  0  0  0  0  0  0  0  0  0
   -1.7826   -8.5320   16.4025 N   0  0  0  0  0  0  0  0  0  0  0  0
   -3.0599   -7.7360   15.5534 S   0  0  0  0  0  0  0  0  0  0  0  0
   -4.0308   -8.6839   15.0722 O   0  0  0  0  0  0  0  0  0  0  0  0
   -3.4630   -6.5557   16.2810 O   0  0  0  0  0  0  0  0  0  0  0  0
   -2.2095   -7.1968   14.1972 N   0  0  0  0  0  0  0  0  0  0  0  0
   -1.7789   -8.2097   13.1901 C   0  0  0  0  0  0  0  0  0  0  0  0
   -0.5527   -7.5997   12.5260 C   0  0  0  0  0  0  0  0  0  0  0  0
    0.0645   -6.8014   13.6559 C   0  0  0  0  0  0  0  0  0  0  0  0
   -1.1365   -6.1958   14.3722 C   0  0  0  0  0  0  0  0  0  0  0  0
   -1.8066  -10.8676   15.2477 H   0  0  0  0  0  0  0  0  0  0  0  0
    0.6540  -11.7271   18.1685 H   0  0  0  0  0  0  0  0  0  0  0  0
    0.5462  -11.9524   18.1752 H   0  0  0  0  0  0  0  0  0  0  0  0
   -1.7184  -12.3799   19.1695 H   0  0  0  0  0  0  0  0  0  0  0  0
   -2.9567   -8.5268   19.1422 H   0  0  0  0  0  0  0  0  0  0  0  0
   -1.1581   -8.9481   15.7057 H   0  0  0  0  0  0  0  0  0  0  0  0
   -1.4949   -9.1469   13.6740 H   0  0  0  0  0  0  0  0  0  0  0  0
   -2.5801   -8.4326   12.4853 H   0  0  0  0  0  0  0  0  0  0  0  0
   -0.8265   -6.9438   11.6994 H   0  0  0  0  0  0  0  0  0  0  0  0
    0.1246   -8.3638   12.1335 H   0  0  0  0  0  0  0  0  0  0  0  0
    0.5913   -7.4820   14.3372 H   0  0  0  0  0  0  0  0  0  0  0  0
    0.7912   -6.0643   13.3113 H   0  0  0  0  0  0  0  0  0  0  0  0
   -0.9032   -5.9915   15.4207 H   0  0  0  0  0  0  0  0  0  0  0  0
   -1.4687   -5.2649   13.9061 H   0  0  0  0  0  0  0  0  0  0  0  0
  1  2  2  3
  2  3  1  0
  2  4  1  0
  4  5  1  0
  5  6  2  0
  6  7  1  0
  7  8  1  0
  8  9  1  0
  9 10  1  0
 10 11  2  0
 10 12  2  0
 10 13  1  0
 13 14  1  0
 14 15  1  0
 15 16  1  0
 16 17  1  0
  8  4  2  0
 17 13  1  0
  1 18  1  0
  3 19  1  0
  3 20  1  0
  5 21  1  0
  7 22  1  0
  9 23  1  0
 14 24  1  0
 14 25  1  0
 15 26  1  0
 15 27  1  0
 16 28  1  0
 16 29  1  0
 17 30  1  0
 17 31  1  0
M  END
>  <Energy>  (207) 
36.783740416715631

>  <compound_id>  (207) 
8716

>  <target_id>  (207) 
1

>  <reference_id>  (207) 
99

>  <inspiration_ids>  (207) 
[123, 99]

>  <energy_score>  (207) 
143.0184761959897

>  <distance_score>  (207) 
17.450376102800107

>  <path>  (207) 
/opt/xchem-fragalysis-2/maxwin/BulkDock/SCRATCH/511015/C8716-P99/C8716-P99.minimised.mol

>  <scratch_subdir>  (207) 
/opt/xchem-fragalysis-2/maxwin/BulkDock/SCRATCH/511015/C8716-P99

>  <fragmenstein_runtime>  (207) 
19.76453185081482

>  <fragmenstein_outcome>  (207) 
too moved

>  <fragmenstein_mode>  (207) 
expansion

>  <fragmenstein_error>  (207) 


$$$$
C8719-P123
     RDKit          3D

 44 45  0  0  0  0  0  0  0  0999 V2000
  -16.7561  -15.5191    6.5524 C   0  0  0  0  0  0  0  0  0  0  0  0
  -15.8667  -15.5029    7.6772 N   0  0  0  0  0  0  0  0  0  0  0  0
  -14.6321  -16.2003    7.9129 C   0  0  0  0  0  0  0  0  0  0  0  0
  -14.0687  -17.0351    7.2632 O   0  0  0  0  0  0  0  0  0  0  0  0
  -14.0465  -15.8172    9.2669 C   0  0  0  0  0  0  0  0  0  0  0  0
  -13.7428  -14.4019    9.3384 N   0  0  0  0  0  0  0  0  0  0  0  0
  -12.5323  -13.8053    9.1347 C   0  0  0  0  0  0  0  0  0  0  0  0
  -12.7458  -12.4574    9.2888 C   0  0  0  0  0  0  0  0  0  0  0  0
  -11.7796  -11.5026    9.1647 N   0  0  0  0  0  0  0  0  0  0  0  0
  -11.8360  -10.0400    9.3561 C   0  0  0  0  0  0  0  0  0  0  0  0
  -12.7269   -9.3407    9.7457 O   0  0  0  0  0  0  0  0  0  0  0  0
  -10.2589   -9.3663    8.7957 C   0  0  0  0  0  0  0  0  0  0  0  0
   -9.0302   -8.1082    8.0219 C   0  0  0  0  0  0  0  0  0  0  0  0
   -9.2153   -6.1835    7.2895 C   0  0  0  0  0  0  0  0  0  0  0  0
   -8.2232   -5.2010    6.6140 N   0  0  0  0  0  0  0  0  0  0  0  0
   -7.5103   -4.2970    7.5104 C   0  0  0  0  0  0  0  0  0  0  0  0
   -8.2537   -2.9746    7.6333 C   0  0  0  0  0  0  0  0  0  0  0  0
   -9.2798   -2.9951    6.5350 C   0  0  0  0  0  0  0  0  0  0  0  0
   -8.9296   -4.2243    5.7272 C   0  0  0  0  0  0  0  0  0  0  0  0
  -14.1222  -12.3361    9.5585 C   0  0  0  0  0  0  0  0  0  0  0  0
  -14.7277  -13.5282    9.6522 N   0  0  0  0  0  0  0  0  0  0  0  0
  -17.7823  -15.5883    6.9192 H   0  0  0  0  0  0  0  0  0  0  0  0
  -16.5221  -16.3700    5.9088 H   0  0  0  0  0  0  0  0  0  0  0  0
  -16.6254  -14.5882    5.9958 H   0  0  0  0  0  0  0  0  0  0  0  0
  -15.9952  -14.7970    8.4062 H   0  0  0  0  0  0  0  0  0  0  0  0
  -13.1176  -16.3708    9.4408 H   0  0  0  0  0  0  0  0  0  0  0  0
  -14.7513  -16.0654   10.0676 H   0  0  0  0  0  0  0  0  0  0  0  0
  -11.6477  -14.3809    8.8997 H   0  0  0  0  0  0  0  0  0  0  0  0
  -10.8478  -11.7648    8.9005 H   0  0  0  0  0  0  0  0  0  0  0  0
   -9.8703  -10.2035    8.2057 H   0  0  0  0  0  0  0  0  0  0  0  0
  -10.0304   -9.2712    9.8594 H   0  0  0  0  0  0  0  0  0  0  0  0
   -9.4361   -8.6264    7.1432 H   0  0  0  0  0  0  0  0  0  0  0  0
   -7.9886   -8.2893    8.3367 H   0  0  0  0  0  0  0  0  0  0  0  0
   -9.4225   -5.4704    8.0717 H   0  0  0  0  0  0  0  0  0  0  0  0
   -9.9349   -6.3071    6.4794 H   0  0  0  0  0  0  0  0  0  0  0  0
   -7.3635   -4.7682    8.4770 H   0  0  0  0  0  0  0  0  0  0  0  0
   -6.5303   -4.0852    7.0691 H   0  0  0  0  0  0  0  0  0  0  0  0
   -7.5689   -2.1264    7.5275 H   0  0  0  0  0  0  0  0  0  0  0  0
   -8.7518   -2.8827    8.5994 H   0  0  0  0  0  0  0  0  0  0  0  0
   -9.2518   -2.0844    5.9285 H   0  0  0  0  0  0  0  0  0  0  0  0
  -10.2875   -3.0819    6.9537 H   0  0  0  0  0  0  0  0  0  0  0  0
   -9.8194   -4.6226    5.2279 H   0  0  0  0  0  0  0  0  0  0  0  0
   -8.2278   -3.9210    4.9384 H   0  0  0  0  0  0  0  0  0  0  0  0
  -14.6965  -11.4317    9.7181 H   0  0  0  0  0  0  0  0  0  0  0  0
  1  2  1  0
  2  3  1  0
  3  4  2  0
  3  5  1  0
  5  6  1  0
  6  7  1  0
  7  8  2  0
  8  9  1  0
  9 10  1  0
 10 11  2  0
 10 12  1  0
 12 13  1  0
 13 14  1  0
 14 15  1  0
 15 16  1  0
 16 17  1  0
 17 18  1  0
 18 19  1  0
  8 20  1  0
 20 21  2  0
 21  6  1  0
 19 15  1  0
  1 22  1  0
  1 23  1  0
  1 24  1  0
  2 25  1  0
  5 26  1  0
  5 27  1  0
  7 28  1  0
  9 29  1  0
 12 30  1  0
 12 31  1  0
 13 32  1  0
 13 33  1  0
 14 34  1  0
 14 35  1  0
 16 36  1  0
 16 37  1  0
 17 38  1  0
 17 39  1  0
 18 40  1  0
 18 41  1  0
 19 42  1  0
 19 43  1  0
 20 44  1  0
M  END
>  <Energy>  (208) 
222.2606052414163

>  <compound_id>  (208) 
8719

>  <target_id>  (208) 
1

>  <reference_id>  (208) 
123

>  <inspiration_ids>  (208) 
[123, 99]

>  <energy_score>  (208) 
199.60106232352825

>  <distance_score>  (208) 
14.63615413991549

>  <path>  (208) 
/opt/xchem-fragalysis-2/maxwin/BulkDock/SCRATCH/511015/C8719-P123/C8719-P123.minimised.mol

>  <scratch_subdir>  (208) 
/opt/xchem-fragalysis-2/maxwin/BulkDock/SCRATCH/511015/C8719-P123

>  <fragmenstein_runtime>  (208) 
36.80420160293579

>  <fragmenstein_outcome>  (208) 
too moved

>  <fragmenstein_mode>  (208) 
expansion

>  <fragmenstein_error>  (208) 


$$$$
C8719-P99
     RDKit          3D

 44 45  0  0  0  0  0  0  0  0999 V2000
   -2.1970  -15.9978   15.0876 C   0  0  0  0  0  0  0  0  0  0  0  0
   -1.9524  -15.5514   13.7468 N   0  0  0  0  0  0  0  0  0  0  0  0
   -2.4130  -16.0619   12.4844 C   0  0  0  0  0  0  0  0  0  0  0  0
   -3.0559  -17.0393   12.2231 O   0  0  0  0  0  0  0  0  0  0  0  0
   -1.8978  -15.2053   11.3334 C   0  0  0  0  0  0  0  0  0  0  0  0
   -2.3491  -13.8335   11.4469 N   0  0  0  0  0  0  0  0  0  0  0  0
   -3.4775  -13.2869   10.9041 C   0  0  0  0  0  0  0  0  0  0  0  0
   -3.5065  -11.9865   11.3407 C   0  0  0  0  0  0  0  0  0  0  0  0
   -4.4869  -11.0807   11.0659 N   0  0  0  0  0  0  0  0  0  0  0  0
   -4.6477   -9.7083   11.4777 C   0  0  0  0  0  0  0  0  0  0  0  0
   -4.0024   -9.0377   12.2297 O   0  0  0  0  0  0  0  0  0  0  0  0
   -5.8765   -9.1258   10.7734 C   0  0  0  0  0  0  0  0  0  0  0  0
   -5.8506   -7.5903   10.6415 C   0  0  0  0  0  0  0  0  0  0  0  0
   -6.8605   -7.1013    9.3474 C   0  0  0  0  0  0  0  0  0  0  0  0
   -7.2037   -5.3052    8.7023 N   0  0  0  0  0  0  0  0  0  0  0  0
   -8.5537   -4.5318    8.6714 C   0  0  0  0  0  0  0  0  0  0  0  0
   -8.4349   -3.1559    8.0009 C   0  0  0  0  0  0  0  0  0  0  0  0
   -7.3619   -3.3832    6.9885 C   0  0  0  0  0  0  0  0  0  0  0  0
   -7.1209   -4.8840    7.0995 C   0  0  0  0  0  0  0  0  0  0  0  0
   -2.3402  -11.8328   12.1171 C   0  0  0  0  0  0  0  0  0  0  0  0
   -1.6320  -12.9654   12.1947 N   0  0  0  0  0  0  0  0  0  0  0  0
   -2.9165  -15.3197   15.5514 H   0  0  0  0  0  0  0  0  0  0  0  0
   -2.6043  -17.0112   15.0708 H   0  0  0  0  0  0  0  0  0  0  0  0
   -1.2566  -15.9726   15.6420 H   0  0  0  0  0  0  0  0  0  0  0  0
   -1.5014  -14.6453   13.5956 H   0  0  0  0  0  0  0  0  0  0  0  0
   -2.2659  -15.6013   10.3810 H   0  0  0  0  0  0  0  0  0  0  0  0
   -0.8030  -15.2174   11.3141 H   0  0  0  0  0  0  0  0  0  0  0  0
   -4.1529  -13.8693   10.2935 H   0  0  0  0  0  0  0  0  0  0  0  0
   -5.2686  -11.3437   10.4797 H   0  0  0  0  0  0  0  0  0  0  0  0
   -5.9625   -9.5783    9.7815 H   0  0  0  0  0  0  0  0  0  0  0  0
   -6.7465   -9.4136   11.3697 H   0  0  0  0  0  0  0  0  0  0  0  0
   -6.0463   -7.2325   11.6589 H   0  0  0  0  0  0  0  0  0  0  0  0
   -4.8393   -7.2440   10.5155 H   0  0  0  0  0  0  0  0  0  0  0  0
   -7.6744   -7.8428    9.2513 H   0  0  0  0  0  0  0  0  0  0  0  0
   -6.5080   -7.8656    8.5913 H   0  0  0  0  0  0  0  0  0  0  0  0
   -9.1531   -5.0655    7.9393 H   0  0  0  0  0  0  0  0  0  0  0  0
   -9.1673   -4.5118    9.5569 H   0  0  0  0  0  0  0  0  0  0  0  0
   -8.1616   -2.3370    8.6614 H   0  0  0  0  0  0  0  0  0  0  0  0
   -9.3805   -2.8819    7.5194 H   0  0  0  0  0  0  0  0  0  0  0  0
   -6.4561   -2.8167    7.2304 H   0  0  0  0  0  0  0  0  0  0  0  0
   -7.6792   -3.0985    5.9803 H   0  0  0  0  0  0  0  0  0  0  0  0
   -7.8960   -5.4088    6.5430 H   0  0  0  0  0  0  0  0  0  0  0  0
   -6.2236   -5.0145    6.5244 H   0  0  0  0  0  0  0  0  0  0  0  0
   -1.9910  -10.9491   12.6374 H   0  0  0  0  0  0  0  0  0  0  0  0
  1  2  1  0
  2  3  1  0
  3  4  2  0
  3  5  1  0
  5  6  1  0
  6  7  1  0
  7  8  2  0
  8  9  1  0
  9 10  1  0
 10 11  2  0
 10 12  1  0
 12 13  1  0
 13 14  1  0
 14 15  1  0
 15 16  1  0
 16 17  1  0
 17 18  1  0
 18 19  1  0
  8 20  1  0
 20 21  2  0
 21  6  1  0
 19 15  1  0
  1 22  1  0
  1 23  1  0
  1 24  1  0
  2 25  1  0
  5 26  1  0
  5 27  1  0
  7 28  1  0
  9 29  1  0
 12 30  1  0
 12 31  1  0
 13 32  1  0
 13 33  1  0
 14 34  1  0
 14 35  1  0
 16 36  1  0
 16 37  1  0
 17 38  1  0
 17 39  1  0
 18 40  1  0
 18 41  1  0
 19 42  1  0
 19 43  1  0
 20 44  1  0
M  END
>  <Energy>  (209) 
172.06429848383004

>  <compound_id>  (209) 
8719

>  <target_id>  (209) 
1

>  <reference_id>  (209) 
99

>  <inspiration_ids>  (209) 
[123, 99]

>  <energy_score>  (209) 
149.40475556593594

>  <distance_score>  (209) 
13.095060434087921

>  <path>  (209) 
/opt/xchem-fragalysis-2/maxwin/BulkDock/SCRATCH/511015/C8719-P99/C8719-P99.minimised.mol

>  <scratch_subdir>  (209) 
/opt/xchem-fragalysis-2/maxwin/BulkDock/SCRATCH/511015/C8719-P99

>  <fragmenstein_runtime>  (209) 
48.14333891868591

>  <fragmenstein_outcome>  (209) 
too moved

>  <fragmenstein_mode>  (209) 
expansion

>  <fragmenstein_error>  (209) 


$$$$
C8720-P123
     RDKit          3D

 44 46  0  0  0  0  0  0  0  0999 V2000
   -9.2279  -11.6138   13.9080 O   0  0  0  0  0  0  0  0  0  0  0  0
   -8.4249  -11.0824   14.6068 C   0  0  0  0  0  0  0  0  0  0  0  0
   -7.4165   -9.6300   13.7260 N   0  0  0  0  0  0  0  0  0  0  0  0
   -7.3816   -8.9256   11.7745 C   0  0  0  0  0  0  0  0  0  0  0  0
   -6.6715   -7.5816   10.2005 C   0  0  0  0  0  0  0  0  0  0  0  0
   -7.2065   -5.4313    8.9592 S   0  0  0  0  0  0  0  0  0  0  0  0
   -8.3238   -4.5792    9.3041 O   0  0  0  0  0  0  0  0  0  0  0  0
   -7.8501   -5.8123    7.6186 O   0  0  0  0  0  0  0  0  0  0  0  0
   -6.4075   -4.0998    7.6426 N   0  0  0  0  0  0  0  0  0  0  0  0
   -7.0695   -2.6077    7.7184 C   0  0  0  0  0  0  0  0  0  0  0  0
   -6.6630   -1.9410    6.4024 C   0  0  0  0  0  0  0  0  0  0  0  0
   -6.3542   -3.0848    5.4671 C   0  0  0  0  0  0  0  0  0  0  0  0
   -6.9238   -4.2900    6.1705 C   0  0  0  0  0  0  0  0  0  0  0  0
   -8.3602  -12.0789   16.4993 C   0  0  0  0  0  0  0  0  0  0  0  0
   -7.7424  -13.3066   16.9956 C   0  0  0  0  0  0  0  0  0  0  0  0
   -8.0878  -14.0715   18.2037 C   0  0  0  0  0  0  0  0  0  0  0  0
   -8.2513  -13.6243   19.4631 C   0  0  0  0  0  0  0  0  0  0  0  0
   -9.4653  -13.3694   19.5799 C   0  0  0  0  0  0  0  0  0  0  0  0
   -9.7756  -13.3085   21.4618 N   0  0  0  0  0  0  0  0  0  0  0  0
  -11.1967  -13.5790   22.0618 C   0  0  0  0  0  0  0  0  0  0  0  0
  -11.4324  -15.2763   22.8409 C   0  0  0  0  0  0  0  0  0  0  0  0
   -9.7271  -15.9724   23.5343 C   0  0  0  0  0  0  0  0  0  0  0  0
  -10.6896  -14.5175   22.6997 N   0  0  0  0  0  0  0  0  0  0  0  0
   -9.3054  -12.3323   18.1222 C   0  0  0  0  0  0  0  0  0  0  0  0
   -6.7063   -9.3015   14.3692 H   0  0  0  0  0  0  0  0  0  0  0  0
   -6.6222   -9.6819   11.5133 H   0  0  0  0  0  0  0  0  0  0  0  0
   -8.3207   -9.3477   11.3886 H   0  0  0  0  0  0  0  0  0  0  0  0
   -5.6773   -7.3409   10.6148 H   0  0  0  0  0  0  0  0  0  0  0  0
   -6.6364   -8.2785    9.3495 H   0  0  0  0  0  0  0  0  0  0  0  0
   -6.7023   -1.9586    8.5165 H   0  0  0  0  0  0  0  0  0  0  0  0
   -8.1598   -2.6959    7.7836 H   0  0  0  0  0  0  0  0  0  0  0  0
   -5.7791   -1.3065    6.5319 H   0  0  0  0  0  0  0  0  0  0  0  0
   -7.4737   -1.3073    6.0282 H   0  0  0  0  0  0  0  0  0  0  0  0
   -5.2781   -3.2201    5.4047 H   0  0  0  0  0  0  0  0  0  0  0  0
   -6.7599   -2.9395    4.4628 H   0  0  0  0  0  0  0  0  0  0  0  0
   -6.6129   -5.2106    5.7101 H   0  0  0  0  0  0  0  0  0  0  0  0
   -8.0201   -4.2201    6.1113 H   0  0  0  0  0  0  0  0  0  0  0  0
   -7.1747  -14.0349   16.3583 H   0  0  0  0  0  0  0  0  0  0  0  0
   -8.2023  -15.1993   18.0620 H   0  0  0  0  0  0  0  0  0  0  0  0
   -7.4089  -12.9889   19.7374 H   0  0  0  0  0  0  0  0  0  0  0  0
  -11.1655  -12.5486   22.5512 H   0  0  0  0  0  0  0  0  0  0  0  0
  -12.3163  -15.6268   23.4336 H   0  0  0  0  0  0  0  0  0  0  0  0
   -8.4522  -16.5745   22.8374 H   0  0  0  0  0  0  0  0  0  0  0  0
   -8.3718  -11.8313   18.6974 H   0  0  0  0  0  0  0  0  0  0  0  0
  1  2  2  0
  2  3  1  0
  3  4  1  0
  4  5  1  0
  5  6  1  0
  6  7  2  0
  6  8  2  0
  6  9  1  0
  9 10  1  0
 10 11  1  0
 11 12  1  0
 12 13  1  0
  2 14  1  0
 14 15  2  0
 15 16  1  0
 16 17  2  0
 17 18  1  0
 18 19  1  0
 19 20  1  0
 20 21  2  0
 21 22  1  0
 22 23  2  0
 18 24  2  0
 13  9  1  0
 24 14  1  0
 23 19  1  0
  3 25  1  0
  4 26  1  0
  4 27  1  0
  5 28  1  0
  5 29  1  0
 10 30  1  0
 10 31  1  0
 11 32  1  0
 11 33  1  0
 12 34  1  0
 12 35  1  0
 13 36  1  0
 13 37  1  0
 15 38  1  0
 16 39  1  0
 17 40  1  0
 20 41  1  0
 21 42  1  0
 22 43  1  0
 24 44  1  0
M  END
>  <Energy>  (210) 
2181.4156215456928

>  <compound_id>  (210) 
8720

>  <target_id>  (210) 
1

>  <reference_id>  (210) 
123

>  <inspiration_ids>  (210) 
[123, 99]

>  <energy_score>  (210) 
2167.0599219953874

>  <distance_score>  (210) 
9.541887522736644

>  <path>  (210) 
/opt/xchem-fragalysis-2/maxwin/BulkDock/SCRATCH/511015/C8720-P123/C8720-P123.minimised.mol

>  <scratch_subdir>  (210) 
/opt/xchem-fragalysis-2/maxwin/BulkDock/SCRATCH/511015/C8720-P123

>  <fragmenstein_runtime>  (210) 
26.90840482711792

>  <fragmenstein_outcome>  (210) 
too moved

>  <fragmenstein_mode>  (210) 
expansion

>  <fragmenstein_error>  (210) 


$$$$
C8720-P99
     RDKit          3D

 44 46  0  0  0  0  0  0  0  0999 V2000
   -5.4438   -6.9299   11.8616 O   0  0  0  0  0  0  0  0  0  0  0  0
   -5.8339   -7.5914   10.9248 C   0  0  0  0  0  0  0  0  0  0  0  0
   -6.6172   -7.1562    9.6355 N   0  0  0  0  0  0  0  0  0  0  0  0
   -7.1141   -5.4659    9.0309 C   0  0  0  0  0  0  0  0  0  0  0  0
   -7.7589   -4.9852    7.5622 C   0  0  0  0  0  0  0  0  0  0  0  0
   -7.9752   -3.2021    7.2268 S   0  0  0  0  0  0  0  0  0  0  0  0
   -8.8044   -2.6359    8.2622 O   0  0  0  0  0  0  0  0  0  0  0  0
   -8.3586   -3.0602    5.8354 O   0  0  0  0  0  0  0  0  0  0  0  0
   -6.4854   -2.4413    7.3647 N   0  0  0  0  0  0  0  0  0  0  0  0
   -6.5402   -0.9736    7.6445 C   0  0  0  0  0  0  0  0  0  0  0  0
   -5.3860   -0.3578    6.8654 C   0  0  0  0  0  0  0  0  0  0  0  0
   -4.4540   -1.5216    6.6116 C   0  0  0  0  0  0  0  0  0  0  0  0
   -5.4222   -2.6721    6.3760 C   0  0  0  0  0  0  0  0  0  0  0  0
   -5.5541   -9.1013   11.1902 C   0  0  0  0  0  0  0  0  0  0  0  0
   -5.7889  -10.1200   10.2775 C   0  0  0  0  0  0  0  0  0  0  0  0
   -5.3685  -11.4314   10.5766 C   0  0  0  0  0  0  0  0  0  0  0  0
   -4.7316  -11.7680   11.7931 C   0  0  0  0  0  0  0  0  0  0  0  0
   -4.5180  -10.8083   12.7875 C   0  0  0  0  0  0  0  0  0  0  0  0
   -3.9491  -11.2376   14.0819 N   0  0  0  0  0  0  0  0  0  0  0  0
   -3.9052  -10.5522   15.2937 C   0  0  0  0  0  0  0  0  0  0  0  0
   -3.4565  -11.4260   16.2652 C   0  0  0  0  0  0  0  0  0  0  0  0
   -3.1929  -12.6147   15.5768 C   0  0  0  0  0  0  0  0  0  0  0  0
   -3.4521  -12.5133   14.2673 N   0  0  0  0  0  0  0  0  0  0  0  0
   -4.9348   -9.4816   12.4681 C   0  0  0  0  0  0  0  0  0  0  0  0
   -6.8587   -7.9783    9.0955 H   0  0  0  0  0  0  0  0  0  0  0  0
   -6.1705   -5.0748    8.9192 H   0  0  0  0  0  0  0  0  0  0  0  0
   -7.6028   -4.9370    9.8207 H   0  0  0  0  0  0  0  0  0  0  0  0
   -7.1695   -5.3035    6.6969 H   0  0  0  0  0  0  0  0  0  0  0  0
   -8.7646   -5.3810    7.4186 H   0  0  0  0  0  0  0  0  0  0  0  0
   -6.4115   -0.8147    8.7185 H   0  0  0  0  0  0  0  0  0  0  0  0
   -7.4859   -0.5192    7.3333 H   0  0  0  0  0  0  0  0  0  0  0  0
   -4.9089    0.4581    7.4152 H   0  0  0  0  0  0  0  0  0  0  0  0
   -5.7516    0.0439    5.9128 H   0  0  0  0  0  0  0  0  0  0  0  0
   -3.8399   -1.7139    7.5001 H   0  0  0  0  0  0  0  0  0  0  0  0
   -3.7867   -1.3535    5.7620 H   0  0  0  0  0  0  0  0  0  0  0  0
   -4.9197   -3.6125    6.5682 H   0  0  0  0  0  0  0  0  0  0  0  0
   -5.8107   -2.6491    5.3534 H   0  0  0  0  0  0  0  0  0  0  0  0
   -6.2505   -9.9326    9.3160 H   0  0  0  0  0  0  0  0  0  0  0  0
   -5.5347  -12.2200    9.8431 H   0  0  0  0  0  0  0  0  0  0  0  0
   -4.4420  -12.8060   11.9566 H   0  0  0  0  0  0  0  0  0  0  0  0
   -4.2336   -9.5257   15.3545 H   0  0  0  0  0  0  0  0  0  0  0  0
   -3.3099  -11.2227   17.3144 H   0  0  0  0  0  0  0  0  0  0  0  0
   -2.8080  -13.5503   15.9617 H   0  0  0  0  0  0  0  0  0  0  0  0
   -4.7651   -8.6916   13.1991 H   0  0  0  0  0  0  0  0  0  0  0  0
  1  2  2  0
  2  3  1  0
  3  4  1  0
  4  5  1  0
  5  6  1  0
  6  7  2  0
  6  8  2  0
  6  9  1  0
  9 10  1  0
 10 11  1  0
 11 12  1  0
 12 13  1  0
  2 14  1  0
 14 15  2  0
 15 16  1  0
 16 17  2  0
 17 18  1  0
 18 19  1  0
 19 20  1  0
 20 21  2  0
 21 22  1  0
 22 23  2  0
 18 24  2  0
 13  9  1  0
 24 14  1  0
 23 19  1  0
  3 25  1  0
  4 26  1  0
  4 27  1  0
  5 28  1  0
  5 29  1  0
 10 30  1  0
 10 31  1  0
 11 32  1  0
 11 33  1  0
 12 34  1  0
 12 35  1  0
 13 36  1  0
 13 37  1  0
 15 38  1  0
 16 39  1  0
 17 40  1  0
 20 41  1  0
 21 42  1  0
 22 43  1  0
 24 44  1  0
M  END
>  <Energy>  (211) 
65.828583896161973

>  <compound_id>  (211) 
8720

>  <target_id>  (211) 
1

>  <reference_id>  (211) 
99

>  <inspiration_ids>  (211) 
[123, 99]

>  <energy_score>  (211) 
51.472884345816965

>  <distance_score>  (211) 
13.45296405525455

>  <path>  (211) 
/opt/xchem-fragalysis-2/maxwin/BulkDock/SCRATCH/511015/C8720-P99/C8720-P99.minimised.mol

>  <scratch_subdir>  (211) 
/opt/xchem-fragalysis-2/maxwin/BulkDock/SCRATCH/511015/C8720-P99

>  <fragmenstein_runtime>  (211) 
43.28353571891785

>  <fragmenstein_outcome>  (211) 
too moved

>  <fragmenstein_mode>  (211) 
expansion

>  <fragmenstein_error>  (211) 


$$$$
C8721-P123
     RDKit          3D

 44 46  0  0  0  0  0  0  0  0999 V2000
  -16.9499  -16.2635   14.1812 O   0  0  0  0  0  0  0  0  0  0  0  0
  -15.9180  -16.7853   13.8490 C   0  0  0  0  0  0  0  0  0  0  0  0
  -14.7121  -16.2105   13.1649 N   0  0  0  0  0  0  0  0  0  0  0  0
  -14.4546  -14.7848   12.5757 C   0  0  0  0  0  0  0  0  0  0  0  0
  -12.9772  -14.1892   12.3741 C   0  0  0  0  0  0  0  0  0  0  0  0
  -12.9067  -12.5344   11.4669 S   0  0  0  0  0  0  0  0  0  0  0  0
  -13.4327  -11.4844   12.3176 O   0  0  0  0  0  0  0  0  0  0  0  0
  -13.4454  -12.7312   10.1370 O   0  0  0  0  0  0  0  0  0  0  0  0
  -11.2428  -12.1613   11.2803 N   0  0  0  0  0  0  0  0  0  0  0  0
  -10.8973  -10.6956   11.2247 C   0  0  0  0  0  0  0  0  0  0  0  0
   -9.7949  -10.5430   10.1753 C   0  0  0  0  0  0  0  0  0  0  0  0
   -9.2245  -11.9357   10.0491 C   0  0  0  0  0  0  0  0  0  0  0  0
  -10.4631  -12.8174   10.2023 C   0  0  0  0  0  0  0  0  0  0  0  0
  -15.9220  -18.3330   14.2556 C   0  0  0  0  0  0  0  0  0  0  0  0
  -15.2755  -19.3008   13.5111 C   0  0  0  0  0  0  0  0  0  0  0  0
  -15.2973  -20.6431   13.9418 C   0  0  0  0  0  0  0  0  0  0  0  0
  -15.7763  -21.0356   15.2061 C   0  0  0  0  0  0  0  0  0  0  0  0
  -16.3964  -20.1176   16.0417 C   0  0  0  0  0  0  0  0  0  0  0  0
  -16.6384  -20.4862   17.4746 C   0  0  0  0  0  0  0  0  0  0  0  0
  -17.4087  -19.9184   18.5281 C   0  0  0  0  0  0  0  0  0  0  0  0
  -17.1939  -20.4759   19.7302 N   0  0  0  0  0  0  0  0  0  0  0  0
  -16.2765  -21.4181   19.4715 N   0  0  0  0  0  0  0  0  0  0  0  0
  -15.9162  -21.4613   18.1524 C   0  0  0  0  0  0  0  0  0  0  0  0
  -16.6094  -18.8226   15.4548 C   0  0  0  0  0  0  0  0  0  0  0  0
  -14.0575  -16.9555   12.9629 H   0  0  0  0  0  0  0  0  0  0  0  0
  -15.0335  -14.0982   13.2033 H   0  0  0  0  0  0  0  0  0  0  0  0
  -14.9496  -14.8060   11.5982 H   0  0  0  0  0  0  0  0  0  0  0  0
  -12.5025  -14.0351   13.3463 H   0  0  0  0  0  0  0  0  0  0  0  0
  -12.3867  -14.8900   11.7767 H   0  0  0  0  0  0  0  0  0  0  0  0
  -11.7660  -10.0944   10.9470 H   0  0  0  0  0  0  0  0  0  0  0  0
  -10.5432  -10.3965   12.2161 H   0  0  0  0  0  0  0  0  0  0  0  0
   -9.0361   -9.8119   10.4627 H   0  0  0  0  0  0  0  0  0  0  0  0
  -10.2306  -10.2307    9.2190 H   0  0  0  0  0  0  0  0  0  0  0  0
   -8.5188  -12.1309   10.8655 H   0  0  0  0  0  0  0  0  0  0  0  0
   -8.7089  -12.1004    9.0990 H   0  0  0  0  0  0  0  0  0  0  0  0
  -10.1928  -13.8378   10.4862 H   0  0  0  0  0  0  0  0  0  0  0  0
  -11.0279  -12.8342    9.2645 H   0  0  0  0  0  0  0  0  0  0  0  0
  -14.8215  -19.0601   12.5547 H   0  0  0  0  0  0  0  0  0  0  0  0
  -14.8841  -21.4065   13.2830 H   0  0  0  0  0  0  0  0  0  0  0  0
  -15.6448  -22.0722   15.5081 H   0  0  0  0  0  0  0  0  0  0  0  0
  -18.1113  -19.0976   18.4647 H   0  0  0  0  0  0  0  0  0  0  0  0
  -15.8932  -21.9596   20.2387 H   0  0  0  0  0  0  0  0  0  0  0  0
  -15.1286  -22.1319   17.8380 H   0  0  0  0  0  0  0  0  0  0  0  0
  -17.2380  -18.1073   15.9747 H   0  0  0  0  0  0  0  0  0  0  0  0
  1  2  2  0
  2  3  1  0
  3  4  1  0
  4  5  1  0
  5  6  1  0
  6  7  2  0
  6  8  2  0
  6  9  1  0
  9 10  1  0
 10 11  1  0
 11 12  1  0
 12 13  1  0
  2 14  1  0
 14 15  2  0
 15 16  1  0
 16 17  2  0
 17 18  1  0
 18 19  1  0
 19 20  1  0
 20 21  2  0
 21 22  1  0
 22 23  1  0
 18 24  2  0
 13  9  1  0
 24 14  1  0
 23 19  2  0
  3 25  1  0
  4 26  1  0
  4 27  1  0
  5 28  1  0
  5 29  1  0
 10 30  1  0
 10 31  1  0
 11 32  1  0
 11 33  1  0
 12 34  1  0
 12 35  1  0
 13 36  1  0
 13 37  1  0
 15 38  1  0
 16 39  1  0
 17 40  1  0
 20 41  1  0
 22 42  1  0
 23 43  1  0
 24 44  1  0
M  END
>  <Energy>  (212) 
5.8091733808463237

>  <compound_id>  (212) 
8721

>  <target_id>  (212) 
1

>  <reference_id>  (212) 
123

>  <inspiration_ids>  (212) 
[123, 99]

>  <energy_score>  (212) 
-3.2101743770045346

>  <distance_score>  (212) 
14.539398170696701

>  <path>  (212) 
/opt/xchem-fragalysis-2/maxwin/BulkDock/SCRATCH/511015/C8721-P123/C8721-P123.minimised.mol

>  <scratch_subdir>  (212) 
/opt/xchem-fragalysis-2/maxwin/BulkDock/SCRATCH/511015/C8721-P123

>  <fragmenstein_runtime>  (212) 
43.94921684265137

>  <fragmenstein_outcome>  (212) 
too moved

>  <fragmenstein_mode>  (212) 
expansion

>  <fragmenstein_error>  (212) 


$$$$
C8721-P99
     RDKit          3D

 44 46  0  0  0  0  0  0  0  0999 V2000
   -9.5932  -12.2467   18.3787 O   0  0  0  0  0  0  0  0  0  0  0  0
  -10.3251  -13.0093   17.8041 C   0  0  0  0  0  0  0  0  0  0  0  0
  -10.7329  -12.4552   15.8751 N   0  0  0  0  0  0  0  0  0  0  0  0
   -9.9837  -10.9129   14.6299 C   0  0  0  0  0  0  0  0  0  0  0  0
   -9.3987  -10.0527   12.6895 C   0  0  0  0  0  0  0  0  0  0  0  0
   -7.9931   -9.0483   10.8745 S   0  0  0  0  0  0  0  0  0  0  0  0
   -6.6948   -8.9858   11.5623 O   0  0  0  0  0  0  0  0  0  0  0  0
   -8.1484  -10.0948    9.8534 O   0  0  0  0  0  0  0  0  0  0  0  0
   -7.3048   -7.4056    9.2323 N   0  0  0  0  0  0  0  0  0  0  0  0
   -7.1559   -5.4555    9.5301 C   0  0  0  0  0  0  0  0  0  0  0  0
   -8.2056   -4.4026    8.7698 C   0  0  0  0  0  0  0  0  0  0  0  0
   -7.8173   -4.6899    7.4418 C   0  0  0  0  0  0  0  0  0  0  0  0
   -7.9476   -6.1841    7.6345 C   0  0  0  0  0  0  0  0  0  0  0  0
  -10.6438  -14.7986   19.0672 C   0  0  0  0  0  0  0  0  0  0  0  0
  -11.7081  -15.4091   20.5824 C   0  0  0  0  0  0  0  0  0  0  0  0
  -12.1258  -16.0444   22.1454 C   0  0  0  0  0  0  0  0  0  0  0  0
  -13.3321  -16.4314   22.1677 C   0  0  0  0  0  0  0  0  0  0  0  0
  -13.5767  -16.4625   20.8090 C   0  0  0  0  0  0  0  0  0  0  0  0
  -15.2057  -17.0981   21.0581 C   0  0  0  0  0  0  0  0  0  0  0  0
  -15.6901  -17.7459   22.3445 C   0  0  0  0  0  0  0  0  0  0  0  0
  -16.9954  -17.9553   22.4582 N   0  0  0  0  0  0  0  0  0  0  0  0
  -17.4629  -17.2889   21.4220 N   0  0  0  0  0  0  0  0  0  0  0  0
  -16.4848  -16.6199   20.7292 C   0  0  0  0  0  0  0  0  0  0  0  0
  -12.2813  -15.8169   19.5026 C   0  0  0  0  0  0  0  0  0  0  0  0
  -11.4131  -13.0915   15.4992 H   0  0  0  0  0  0  0  0  0  0  0  0
  -10.9600  -11.0409   14.1389 H   0  0  0  0  0  0  0  0  0  0  0  0
   -9.1879  -11.6463   14.4242 H   0  0  0  0  0  0  0  0  0  0  0  0
   -8.9767  -11.0316   12.3768 H   0  0  0  0  0  0  0  0  0  0  0  0
  -10.3702  -10.0271   12.1713 H   0  0  0  0  0  0  0  0  0  0  0  0
   -7.1855   -4.9648   10.4937 H   0  0  0  0  0  0  0  0  0  0  0  0
   -6.2244   -5.3206    9.0931 H   0  0  0  0  0  0  0  0  0  0  0  0
   -8.1019   -3.3154    8.8429 H   0  0  0  0  0  0  0  0  0  0  0  0
   -9.2475   -4.5719    9.0102 H   0  0  0  0  0  0  0  0  0  0  0  0
   -6.8217   -4.3173    7.1781 H   0  0  0  0  0  0  0  0  0  0  0  0
   -8.5149   -4.3068    6.6878 H   0  0  0  0  0  0  0  0  0  0  0  0
   -7.3057   -6.2335    6.6799 H   0  0  0  0  0  0  0  0  0  0  0  0
   -9.0718   -6.2730    7.4833 H   0  0  0  0  0  0  0  0  0  0  0  0
  -12.6292  -14.6795   20.6208 H   0  0  0  0  0  0  0  0  0  0  0  0
  -11.5312  -16.0474   23.0272 H   0  0  0  0  0  0  0  0  0  0  0  0
  -13.7844  -16.7714   23.0716 H   0  0  0  0  0  0  0  0  0  0  0  0
  -15.1212  -18.1015   23.1943 H   0  0  0  0  0  0  0  0  0  0  0  0
  -18.4691  -17.2226   21.3062 H   0  0  0  0  0  0  0  0  0  0  0  0
  -16.8353  -15.8585   20.0468 H   0  0  0  0  0  0  0  0  0  0  0  0
  -13.0959  -15.5977   18.7879 H   0  0  0  0  0  0  0  0  0  0  0  0
  1  2  2  0
  2  3  1  0
  3  4  1  0
  4  5  1  0
  5  6  1  0
  6  7  2  0
  6  8  2  0
  6  9  1  0
  9 10  1  0
 10 11  1  0
 11 12  1  0
 12 13  1  0
  2 14  1  0
 14 15  2  0
 15 16  1  0
 16 17  2  0
 17 18  1  0
 18 19  1  0
 19 20  1  0
 20 21  2  0
 21 22  1  0
 22 23  1  0
 18 24  2  0
 13  9  1  0
 24 14  1  0
 23 19  2  0
  3 25  1  0
  4 26  1  0
  4 27  1  0
  5 28  1  0
  5 29  1  0
 10 30  1  0
 10 31  1  0
 11 32  1  0
 11 33  1  0
 12 34  1  0
 12 35  1  0
 13 36  1  0
 13 37  1  0
 15 38  1  0
 16 39  1  0
 17 40  1  0
 20 41  1  0
 22 42  1  0
 23 43  1  0
 24 44  1  0
M  END
>  <Energy>  (213) 
2127.2789580593021

>  <compound_id>  (213) 
8721

>  <target_id>  (213) 
1

>  <reference_id>  (213) 
99

>  <inspiration_ids>  (213) 
[123, 99]

>  <energy_score>  (213) 
2118.2596103014694

>  <distance_score>  (213) 
11.194654602694214

>  <path>  (213) 
/opt/xchem-fragalysis-2/maxwin/BulkDock/SCRATCH/511015/C8721-P99/C8721-P99.minimised.mol

>  <scratch_subdir>  (213) 
/opt/xchem-fragalysis-2/maxwin/BulkDock/SCRATCH/511015/C8721-P99

>  <fragmenstein_runtime>  (213) 
28.219593286514282

>  <fragmenstein_outcome>  (213) 
too moved

>  <fragmenstein_mode>  (213) 
expansion

>  <fragmenstein_error>  (213) 


$$$$
C8722-P123
     RDKit          3D

 44 46  0  0  0  0  0  0  0  0999 V2000
   -9.3794  -15.3827   18.9198 O   0  0  0  0  0  0  0  0  0  0  0  0
   -8.4096  -16.0361   19.1523 C   0  0  0  0  0  0  0  0  0  0  0  0
   -7.5051  -17.0266   18.0870 N   0  0  0  0  0  0  0  0  0  0  0  0
   -7.6362  -17.2487   16.4903 C   0  0  0  0  0  0  0  0  0  0  0  0
   -7.0820  -16.0007   15.4523 C   0  0  0  0  0  0  0  0  0  0  0  0
   -6.4836  -16.1626   13.7284 S   0  0  0  0  0  0  0  0  0  0  0  0
   -5.0362  -16.2039   13.7598 O   0  0  0  0  0  0  0  0  0  0  0  0
   -7.2528  -17.1850   13.0534 O   0  0  0  0  0  0  0  0  0  0  0  0
   -6.8177  -14.6637   12.9370 N   0  0  0  0  0  0  0  0  0  0  0  0
   -5.9889  -14.3391   11.7315 C   0  0  0  0  0  0  0  0  0  0  0  0
   -6.5845  -13.0383   11.1812 C   0  0  0  0  0  0  0  0  0  0  0  0
   -7.9692  -12.9343   11.8081 C   0  0  0  0  0  0  0  0  0  0  0  0
   -8.1870  -14.2617   12.5505 C   0  0  0  0  0  0  0  0  0  0  0  0
   -7.8112  -15.7117   20.9838 C   0  0  0  0  0  0  0  0  0  0  0  0
   -7.3931  -13.7618   20.3256 C   0  0  0  0  0  0  0  0  0  0  0  0
   -6.6720  -12.5128   21.7565 C   0  0  0  0  0  0  0  0  0  0  0  0
   -6.1474  -13.2501   23.2587 C   0  0  0  0  0  0  0  0  0  0  0  0
   -6.7552  -14.9441   23.8030 C   0  0  0  0  0  0  0  0  0  0  0  0
   -7.6275  -16.5013   22.8874 C   0  0  0  0  0  0  0  0  0  0  0  0
   -8.5037  -16.1230   24.7568 N   0  0  0  0  0  0  0  0  0  0  0  0
   -9.7882  -16.6162   25.7635 C   0  0  0  0  0  0  0  0  0  0  0  0
  -10.1460  -15.8373   26.8426 C   0  0  0  0  0  0  0  0  0  0  0  0
   -8.9448  -15.2099   26.9925 C   0  0  0  0  0  0  0  0  0  0  0  0
   -8.1569  -15.2497   25.9159 N   0  0  0  0  0  0  0  0  0  0  0  0
   -6.7780  -17.5225   18.6094 H   0  0  0  0  0  0  0  0  0  0  0  0
   -8.5272  -17.7894   16.2156 H   0  0  0  0  0  0  0  0  0  0  0  0
   -6.8552  -18.0089   16.3430 H   0  0  0  0  0  0  0  0  0  0  0  0
   -7.9175  -15.4482   15.0834 H   0  0  0  0  0  0  0  0  0  0  0  0
   -6.3858  -15.3713   16.0040 H   0  0  0  0  0  0  0  0  0  0  0  0
   -4.9321  -14.2165   11.9807 H   0  0  0  0  0  0  0  0  0  0  0  0
   -6.0903  -15.1422   10.9922 H   0  0  0  0  0  0  0  0  0  0  0  0
   -5.9735  -12.1737   11.4622 H   0  0  0  0  0  0  0  0  0  0  0  0
   -6.6307  -13.0645   10.0876 H   0  0  0  0  0  0  0  0  0  0  0  0
   -8.7527  -12.7532   11.0661 H   0  0  0  0  0  0  0  0  0  0  0  0
   -7.9894  -12.0997   12.5186 H   0  0  0  0  0  0  0  0  0  0  0  0
   -8.6235  -15.0078   11.8776 H   0  0  0  0  0  0  0  0  0  0  0  0
   -8.8405  -14.1269   13.4147 H   0  0  0  0  0  0  0  0  0  0  0  0
   -8.0916  -13.3657   19.5450 H   0  0  0  0  0  0  0  0  0  0  0  0
   -7.3253  -11.7746   22.2796 H   0  0  0  0  0  0  0  0  0  0  0  0
   -5.8780  -12.5202   24.0419 H   0  0  0  0  0  0  0  0  0  0  0  0
   -6.9467  -14.7911   24.8216 H   0  0  0  0  0  0  0  0  0  0  0  0
   -9.3807  -17.4288   26.2900 H   0  0  0  0  0  0  0  0  0  0  0  0
  -10.9410  -15.9754   27.5585 H   0  0  0  0  0  0  0  0  0  0  0  0
   -8.6221  -14.5988   27.8276 H   0  0  0  0  0  0  0  0  0  0  0  0
  1  2  2  0
  2  3  1  0
  3  4  1  0
  4  5  1  0
  5  6  1  0
  6  7  2  0
  6  8  2  0
  6  9  1  0
  9 10  1  0
 10 11  1  0
 11 12  1  0
 12 13  1  0
  2 14  1  0
 14 15  2  0
 15 16  1  0
 16 17  2  0
 17 18  1  0
 18 19  2  0
 19 20  1  0
 20 21  1  0
 21 22  2  0
 22 23  1  0
 23 24  2  0
 13  9  1  0
 19 14  1  0
 24 20  1  0
  3 25  1  0
  4 26  1  0
  4 27  1  0
  5 28  1  0
  5 29  1  0
 10 30  1  0
 10 31  1  0
 11 32  1  0
 11 33  1  0
 12 34  1  0
 12 35  1  0
 13 36  1  0
 13 37  1  0
 15 38  1  0
 16 39  1  0
 17 40  1  0
 18 41  1  0
 21 42  1  0
 22 43  1  0
 23 44  1  0
M  END
>  <Energy>  (214) 
1206.4394437443591

>  <compound_id>  (214) 
8722

>  <target_id>  (214) 
1

>  <reference_id>  (214) 
123

>  <inspiration_ids>  (214) 
[123, 99]

>  <energy_score>  (214) 
1174.75702775726

>  <distance_score>  (214) 
14.187906875388162

>  <path>  (214) 
/opt/xchem-fragalysis-2/maxwin/BulkDock/SCRATCH/511015/C8722-P123/C8722-P123.minimised.mol

>  <scratch_subdir>  (214) 
/opt/xchem-fragalysis-2/maxwin/BulkDock/SCRATCH/511015/C8722-P123

>  <fragmenstein_runtime>  (214) 
31.159369230270386

>  <fragmenstein_outcome>  (214) 
too moved

>  <fragmenstein_mode>  (214) 
expansion

>  <fragmenstein_error>  (214) 


$$$$
C8722-P99
     RDKit          3D

 44 46  0  0  0  0  0  0  0  0999 V2000
  -13.3863   -6.4123   10.5946 O   0  0  0  0  0  0  0  0  0  0  0  0
  -12.5461   -6.3058   11.4826 C   0  0  0  0  0  0  0  0  0  0  0  0
  -10.7851   -5.4840   11.4662 N   0  0  0  0  0  0  0  0  0  0  0  0
  -10.0239   -4.6615   10.3786 C   0  0  0  0  0  0  0  0  0  0  0  0
   -9.1073   -4.3459    8.8604 C   0  0  0  0  0  0  0  0  0  0  0  0
   -9.2314   -2.6565    8.0597 S   0  0  0  0  0  0  0  0  0  0  0  0
   -9.9660   -2.7574    6.8169 O   0  0  0  0  0  0  0  0  0  0  0  0
   -9.5277   -1.5856    8.9879 O   0  0  0  0  0  0  0  0  0  0  0  0
   -7.6114   -2.4016    7.5960 N   0  0  0  0  0  0  0  0  0  0  0  0
   -7.1370   -1.0052    7.5159 C   0  0  0  0  0  0  0  0  0  0  0  0
   -5.7866   -1.1482    6.8305 C   0  0  0  0  0  0  0  0  0  0  0  0
   -6.0693   -2.2045    5.7774 C   0  0  0  0  0  0  0  0  0  0  0  0
   -7.0574   -3.1593    6.4494 C   0  0  0  0  0  0  0  0  0  0  0  0
  -13.2128   -6.9380   13.0232 C   0  0  0  0  0  0  0  0  0  0  0  0
  -14.2009   -5.9529   13.4060 C   0  0  0  0  0  0  0  0  0  0  0  0
  -15.1916   -6.0290   14.3897 C   0  0  0  0  0  0  0  0  0  0  0  0
  -15.3679   -7.2062   15.0340 C   0  0  0  0  0  0  0  0  0  0  0  0
  -14.5475   -8.2621   14.6671 C   0  0  0  0  0  0  0  0  0  0  0  0
  -13.4540   -8.2318   13.6996 C   0  0  0  0  0  0  0  0  0  0  0  0
  -12.8381   -9.6071   13.7057 N   0  0  0  0  0  0  0  0  0  0  0  0
  -11.7449  -10.1896   13.0917 C   0  0  0  0  0  0  0  0  0  0  0  0
  -11.5516  -11.4603   13.6031 C   0  0  0  0  0  0  0  0  0  0  0  0
  -12.6342  -11.6635   14.4445 C   0  0  0  0  0  0  0  0  0  0  0  0
  -13.3931  -10.5795   14.5403 N   0  0  0  0  0  0  0  0  0  0  0  0
  -10.3585   -5.4861   12.3997 H   0  0  0  0  0  0  0  0  0  0  0  0
   -9.1571   -4.8370   10.9760 H   0  0  0  0  0  0  0  0  0  0  0  0
  -10.0786   -3.6821   10.8890 H   0  0  0  0  0  0  0  0  0  0  0  0
   -9.1916   -5.0165    8.0053 H   0  0  0  0  0  0  0  0  0  0  0  0
   -8.0504   -4.4741    9.0839 H   0  0  0  0  0  0  0  0  0  0  0  0
   -7.8195   -0.4010    6.9084 H   0  0  0  0  0  0  0  0  0  0  0  0
   -7.0268   -0.5619    8.5090 H   0  0  0  0  0  0  0  0  0  0  0  0
   -5.4300   -0.2072    6.4031 H   0  0  0  0  0  0  0  0  0  0  0  0
   -5.0342   -1.5149    7.5391 H   0  0  0  0  0  0  0  0  0  0  0  0
   -5.1640   -2.7148    5.4357 H   0  0  0  0  0  0  0  0  0  0  0  0
   -6.5424   -1.7408    4.9033 H   0  0  0  0  0  0  0  0  0  0  0  0
   -6.5440   -4.0431    6.8299 H   0  0  0  0  0  0  0  0  0  0  0  0
   -7.8196   -3.4821    5.7358 H   0  0  0  0  0  0  0  0  0  0  0  0
  -14.3091   -5.0276   12.8673 H   0  0  0  0  0  0  0  0  0  0  0  0
  -15.8474   -5.1846   14.5831 H   0  0  0  0  0  0  0  0  0  0  0  0
  -16.1402   -7.3378   15.7856 H   0  0  0  0  0  0  0  0  0  0  0  0
  -14.7998   -9.1724   15.2180 H   0  0  0  0  0  0  0  0  0  0  0  0
  -11.1830   -9.6972   12.3266 H   0  0  0  0  0  0  0  0  0  0  0  0
  -10.7803  -12.1621   13.3208 H   0  0  0  0  0  0  0  0  0  0  0  0
  -12.9296  -12.5603   14.9602 H   0  0  0  0  0  0  0  0  0  0  0  0
  1  2  2  0
  2  3  1  0
  3  4  1  0
  4  5  1  0
  5  6  1  0
  6  7  2  0
  6  8  2  0
  6  9  1  0
  9 10  1  0
 10 11  1  0
 11 12  1  0
 12 13  1  0
  2 14  1  0
 14 15  2  0
 15 16  1  0
 16 17  2  0
 17 18  1  0
 18 19  2  0
 19 20  1  0
 20 21  1  0
 21 22  2  0
 22 23  1  0
 23 24  2  0
 13  9  1  0
 19 14  1  0
 24 20  1  0
  3 25  1  0
  4 26  1  0
  4 27  1  0
  5 28  1  0
  5 29  1  0
 10 30  1  0
 10 31  1  0
 11 32  1  0
 11 33  1  0
 12 34  1  0
 12 35  1  0
 13 36  1  0
 13 37  1  0
 15 38  1  0
 16 39  1  0
 17 40  1  0
 18 41  1  0
 21 42  1  0
 22 43  1  0
 23 44  1  0
M  END
>  <Energy>  (215) 
246.10327069728169

>  <compound_id>  (215) 
8722

>  <target_id>  (215) 
1

>  <reference_id>  (215) 
99

>  <inspiration_ids>  (215) 
[123, 99]

>  <energy_score>  (215) 
214.42085471013763

>  <distance_score>  (215) 
13.71320441501606

>  <path>  (215) 
/opt/xchem-fragalysis-2/maxwin/BulkDock/SCRATCH/511015/C8722-P99/C8722-P99.minimised.mol

>  <scratch_subdir>  (215) 
/opt/xchem-fragalysis-2/maxwin/BulkDock/SCRATCH/511015/C8722-P99

>  <fragmenstein_runtime>  (215) 
40.42339897155762

>  <fragmenstein_outcome>  (215) 
too moved

>  <fragmenstein_mode>  (215) 
expansion

>  <fragmenstein_error>  (215) 


$$$$
C8723-P123
     RDKit          3D

 56 58  0  0  0  0  0  0  0  0999 V2000
   -9.5818  -12.5970    6.6105 O   0  0  0  0  0  0  0  0  0  0  0  0
  -10.0086  -12.0403    7.5831 C   0  0  0  0  0  0  0  0  0  0  0  0
   -9.7964  -10.4030    7.8592 C   0  0  0  0  0  0  0  0  0  0  0  0
   -9.6565   -8.9474    7.2851 N   0  0  0  0  0  0  0  0  0  0  0  0
  -10.2640   -7.8802    6.1093 C   0  0  0  0  0  0  0  0  0  0  0  0
   -9.8411   -6.1856    6.1848 C   0  0  0  0  0  0  0  0  0  0  0  0
   -8.9283   -6.0628    7.3369 C   0  0  0  0  0  0  0  0  0  0  0  0
   -8.7177   -7.9761    8.0208 C   0  0  0  0  0  0  0  0  0  0  0  0
  -10.6877  -12.5788    8.7757 N   0  0  0  0  0  0  0  0  0  0  0  0
  -10.9588  -13.9538    9.1827 C   0  0  0  0  0  0  0  0  0  0  0  0
  -10.1658  -14.2873   10.5214 C   0  0  0  0  0  0  0  0  0  0  0  0
  -10.5456  -13.2608   11.6271 C   0  0  0  0  0  0  0  0  0  0  0  0
  -11.8716  -13.5230   12.0897 O   0  0  0  0  0  0  0  0  0  0  0  0
  -10.4217  -15.7045   11.0225 N   0  0  0  0  0  0  0  0  0  0  0  0
   -9.4898  -16.1228   12.1258 C   0  0  0  0  0  0  0  0  0  0  0  0
   -9.7108  -17.5552   12.6619 C   0  0  0  0  0  0  0  0  0  0  0  0
  -10.8552  -18.3811   12.5572 C   0  0  0  0  0  0  0  0  0  0  0  0
  -10.4732  -19.6022   13.0580 C   0  0  0  0  0  0  0  0  0  0  0  0
   -9.2125  -19.4519   13.5477 N   0  0  0  0  0  0  0  0  0  0  0  0
   -8.3292  -20.4862   14.0511 C   0  0  0  0  0  0  0  0  0  0  0  0
   -6.9903  -20.5543   13.3066 C   0  0  0  0  0  0  0  0  0  0  0  0
   -6.3822  -21.8874   13.7273 C   0  0  0  0  0  0  0  0  0  0  0  0
   -7.5547  -22.7685   14.1507 C   0  0  0  0  0  0  0  0  0  0  0  0
   -8.8087  -21.9352   13.9116 C   0  0  0  0  0  0  0  0  0  0  0  0
   -8.7436  -18.1925   13.3601 N   0  0  0  0  0  0  0  0  0  0  0  0
   -8.7673  -10.6983    7.8547 H   0  0  0  0  0  0  0  0  0  0  0  0
  -10.3536  -10.2114    8.7927 H   0  0  0  0  0  0  0  0  0  0  0  0
  -10.1342   -8.2302    5.1168 H   0  0  0  0  0  0  0  0  0  0  0  0
  -11.2449   -7.9305    6.4973 H   0  0  0  0  0  0  0  0  0  0  0  0
  -10.5508   -5.3736    6.2489 H   0  0  0  0  0  0  0  0  0  0  0  0
   -9.6764   -5.6968    5.2513 H   0  0  0  0  0  0  0  0  0  0  0  0
   -7.9444   -5.6778    6.9881 H   0  0  0  0  0  0  0  0  0  0  0  0
   -9.1712   -5.2285    8.0180 H   0  0  0  0  0  0  0  0  0  0  0  0
   -7.6231   -8.1695    8.1221 H   0  0  0  0  0  0  0  0  0  0  0  0
   -8.9779   -8.3003    8.9739 H   0  0  0  0  0  0  0  0  0  0  0  0
  -10.9861  -11.8111    9.3627 H   0  0  0  0  0  0  0  0  0  0  0  0
  -12.0380  -14.0491    9.3369 H   0  0  0  0  0  0  0  0  0  0  0  0
  -10.6446  -14.6273    8.3795 H   0  0  0  0  0  0  0  0  0  0  0  0
   -9.0963  -14.1819   10.2977 H   0  0  0  0  0  0  0  0  0  0  0  0
  -10.5082  -12.2247   11.2955 H   0  0  0  0  0  0  0  0  0  0  0  0
   -9.8698  -13.3379   12.4844 H   0  0  0  0  0  0  0  0  0  0  0  0
  -11.9410  -14.5000   12.1174 H   0  0  0  0  0  0  0  0  0  0  0  0
  -10.2513  -16.3445   10.2430 H   0  0  0  0  0  0  0  0  0  0  0  0
   -8.4575  -16.0504   11.7629 H   0  0  0  0  0  0  0  0  0  0  0  0
   -9.6043  -15.4435   12.9741 H   0  0  0  0  0  0  0  0  0  0  0  0
  -11.7927  -18.1430   12.0744 H   0  0  0  0  0  0  0  0  0  0  0  0
  -10.9814  -20.5528   13.0583 H   0  0  0  0  0  0  0  0  0  0  0  0
   -8.1759  -20.2718   15.1150 H   0  0  0  0  0  0  0  0  0  0  0  0
   -6.3257  -19.7168   13.5350 H   0  0  0  0  0  0  0  0  0  0  0  0
   -7.1535  -20.5490   12.2207 H   0  0  0  0  0  0  0  0  0  0  0  0
   -5.6977  -21.7472   14.5717 H   0  0  0  0  0  0  0  0  0  0  0  0
   -5.8088  -22.3369   12.9103 H   0  0  0  0  0  0  0  0  0  0  0  0
   -7.4637  -23.0213   15.2135 H   0  0  0  0  0  0  0  0  0  0  0  0
   -7.5847  -23.7084   13.5907 H   0  0  0  0  0  0  0  0  0  0  0  0
   -9.1905  -22.1344   12.9025 H   0  0  0  0  0  0  0  0  0  0  0  0
   -9.5961  -22.1871   14.6244 H   0  0  0  0  0  0  0  0  0  0  0  0
  1  2  2  0
  2  3  1  0
  3  4  1  0
  4  5  1  0
  5  6  1  0
  6  7  1  0
  7  8  1  0
  2  9  1  0
  9 10  1  0
 10 11  1  0
 11 12  1  0
 12 13  1  0
 11 14  1  0
 14 15  1  0
 15 16  1  0
 16 17  1  0
 17 18  2  0
 18 19  1  0
 19 20  1  0
 20 21  1  0
 21 22  1  0
 22 23  1  0
 23 24  1  0
 19 25  1  0
  8  4  1  0
 25 16  2  0
 24 20  1  0
  3 26  1  0
  3 27  1  0
  5 28  1  0
  5 29  1  0
  6 30  1  0
  6 31  1  0
  7 32  1  0
  7 33  1  0
  8 34  1  0
  8 35  1  0
  9 36  1  0
 10 37  1  0
 10 38  1  0
 11 39  1  0
 12 40  1  0
 12 41  1  0
 13 42  1  0
 14 43  1  0
 15 44  1  0
 15 45  1  0
 17 46  1  0
 18 47  1  0
 20 48  1  0
 21 49  1  0
 21 50  1  0
 22 51  1  0
 22 52  1  0
 23 53  1  0
 23 54  1  0
 24 55  1  0
 24 56  1  0
M  END
>  <Energy>  (216) 
336.3152518378314

>  <compound_id>  (216) 
8723

>  <target_id>  (216) 
1

>  <reference_id>  (216) 
123

>  <inspiration_ids>  (216) 
[123, 99]

>  <energy_score>  (216) 
190.26358966134512

>  <distance_score>  (216) 
14.0520074472434

>  <path>  (216) 
/opt/xchem-fragalysis-2/maxwin/BulkDock/SCRATCH/511015/C8723-P123/C8723-P123.minimised.mol

>  <scratch_subdir>  (216) 
/opt/xchem-fragalysis-2/maxwin/BulkDock/SCRATCH/511015/C8723-P123

>  <fragmenstein_runtime>  (216) 
47.48942732810974

>  <fragmenstein_outcome>  (216) 
too moved

>  <fragmenstein_mode>  (216) 
expansion

>  <fragmenstein_error>  (216) 


$$$$
C8723-P99
     RDKit          3D

 56 58  0  0  0  0  0  0  0  0999 V2000
  -11.2349  -12.2335    8.5134 O   0  0  0  0  0  0  0  0  0  0  0  0
  -11.0912  -11.3964    9.3659 C   0  0  0  0  0  0  0  0  0  0  0  0
  -10.6039   -9.8432    8.9341 C   0  0  0  0  0  0  0  0  0  0  0  0
   -9.5722   -9.0637    7.7012 N   0  0  0  0  0  0  0  0  0  0  0  0
  -10.2438   -8.1169    6.3877 C   0  0  0  0  0  0  0  0  0  0  0  0
   -9.9030   -6.3582    6.3489 C   0  0  0  0  0  0  0  0  0  0  0  0
   -8.8784   -6.0766    7.4255 C   0  0  0  0  0  0  0  0  0  0  0  0
   -8.5410   -7.9544    8.1814 C   0  0  0  0  0  0  0  0  0  0  0  0
  -11.2500  -11.4773   10.8011 N   0  0  0  0  0  0  0  0  0  0  0  0
  -11.5383  -12.6188   11.6724 C   0  0  0  0  0  0  0  0  0  0  0  0
  -11.9729  -13.8947   10.8941 C   0  0  0  0  0  0  0  0  0  0  0  0
  -13.4414  -13.7526   10.4094 C   0  0  0  0  0  0  0  0  0  0  0  0
  -13.6828  -12.6931    9.4967 O   0  0  0  0  0  0  0  0  0  0  0  0
  -11.6688  -15.2240   11.5369 N   0  0  0  0  0  0  0  0  0  0  0  0
  -12.4999  -15.6244   12.6889 C   0  0  0  0  0  0  0  0  0  0  0  0
  -12.4862  -17.1420   12.9315 C   0  0  0  0  0  0  0  0  0  0  0  0
  -11.4864  -18.0973   12.6397 C   0  0  0  0  0  0  0  0  0  0  0  0
  -12.1356  -19.3133   12.6756 C   0  0  0  0  0  0  0  0  0  0  0  0
  -13.4110  -19.0626   13.0936 N   0  0  0  0  0  0  0  0  0  0  0  0
  -14.6001  -19.8921   13.0235 C   0  0  0  0  0  0  0  0  0  0  0  0
  -15.2619  -20.1420   14.3825 C   0  0  0  0  0  0  0  0  0  0  0  0
  -16.1217  -21.3714   14.1443 C   0  0  0  0  0  0  0  0  0  0  0  0
  -15.2384  -22.2488   13.2751 C   0  0  0  0  0  0  0  0  0  0  0  0
  -14.4916  -21.2792   12.3592 C   0  0  0  0  0  0  0  0  0  0  0  0
  -13.5801  -17.7666   13.4004 N   0  0  0  0  0  0  0  0  0  0  0  0
  -11.6124   -9.4848    8.8901 H   0  0  0  0  0  0  0  0  0  0  0  0
  -10.1273  -10.5554    8.2220 H   0  0  0  0  0  0  0  0  0  0  0  0
  -10.1411   -8.5904    5.4213 H   0  0  0  0  0  0  0  0  0  0  0  0
  -11.2013   -8.2274    6.8289 H   0  0  0  0  0  0  0  0  0  0  0  0
  -10.5737   -5.5051    6.3442 H   0  0  0  0  0  0  0  0  0  0  0  0
   -9.8939   -6.1183    5.3116 H   0  0  0  0  0  0  0  0  0  0  0  0
   -9.1193   -5.2146    8.0739 H   0  0  0  0  0  0  0  0  0  0  0  0
   -7.9396   -5.6739    6.9852 H   0  0  0  0  0  0  0  0  0  0  0  0
   -8.1735   -8.2285    9.1763 H   0  0  0  0  0  0  0  0  0  0  0  0
   -7.4762   -8.1443    7.9124 H   0  0  0  0  0  0  0  0  0  0  0  0
  -11.1270  -10.5530   11.1995 H   0  0  0  0  0  0  0  0  0  0  0  0
  -12.2938  -12.3106   12.4020 H   0  0  0  0  0  0  0  0  0  0  0  0
  -10.6077  -12.8145   12.2165 H   0  0  0  0  0  0  0  0  0  0  0  0
  -11.3430  -13.9486   10.0025 H   0  0  0  0  0  0  0  0  0  0  0  0
  -14.1134  -13.5998   11.2601 H   0  0  0  0  0  0  0  0  0  0  0  0
  -13.7552  -14.6768    9.9107 H   0  0  0  0  0  0  0  0  0  0  0  0
  -12.9993  -12.7664    8.7954 H   0  0  0  0  0  0  0  0  0  0  0  0
  -11.8134  -15.9326   10.8133 H   0  0  0  0  0  0  0  0  0  0  0  0
  -12.1576  -15.1036   13.5839 H   0  0  0  0  0  0  0  0  0  0  0  0
  -13.5375  -15.3478   12.4882 H   0  0  0  0  0  0  0  0  0  0  0  0
  -10.4835  -17.9128   12.2802 H   0  0  0  0  0  0  0  0  0  0  0  0
  -11.7904  -20.2926   12.3826 H   0  0  0  0  0  0  0  0  0  0  0  0
  -15.3060  -19.3113   12.4100 H   0  0  0  0  0  0  0  0  0  0  0  0
  -15.8633  -19.2881   14.7099 H   0  0  0  0  0  0  0  0  0  0  0  0
  -14.5210  -20.3445   15.1614 H   0  0  0  0  0  0  0  0  0  0  0  0
  -16.4102  -21.8648   15.0767 H   0  0  0  0  0  0  0  0  0  0  0  0
  -17.0349  -21.0975   13.6029 H   0  0  0  0  0  0  0  0  0  0  0  0
  -15.8150  -22.9881   12.7112 H   0  0  0  0  0  0  0  0  0  0  0  0
  -14.5229  -22.7931   13.9021 H   0  0  0  0  0  0  0  0  0  0  0  0
  -14.9799  -21.2474   11.3773 H   0  0  0  0  0  0  0  0  0  0  0  0
  -13.4737  -21.6336   12.1865 H   0  0  0  0  0  0  0  0  0  0  0  0
  1  2  2  0
  2  3  1  0
  3  4  1  0
  4  5  1  0
  5  6  1  0
  6  7  1  0
  7  8  1  0
  2  9  1  0
  9 10  1  0
 10 11  1  0
 11 12  1  0
 12 13  1  0
 11 14  1  0
 14 15  1  0
 15 16  1  0
 16 17  1  0
 17 18  2  0
 18 19  1  0
 19 20  1  0
 20 21  1  0
 21 22  1  0
 22 23  1  0
 23 24  1  0
 19 25  1  0
  8  4  1  0
 25 16  2  0
 24 20  1  0
  3 26  1  0
  3 27  1  0
  5 28  1  0
  5 29  1  0
  6 30  1  0
  6 31  1  0
  7 32  1  0
  7 33  1  0
  8 34  1  0
  8 35  1  0
  9 36  1  0
 10 37  1  0
 10 38  1  0
 11 39  1  0
 12 40  1  0
 12 41  1  0
 13 42  1  0
 14 43  1  0
 15 44  1  0
 15 45  1  0
 17 46  1  0
 18 47  1  0
 20 48  1  0
 21 49  1  0
 21 50  1  0
 22 51  1  0
 22 52  1  0
 23 53  1  0
 23 54  1  0
 24 55  1  0
 24 56  1  0
M  END
>  <Energy>  (217) 
400.86954452631221

>  <compound_id>  (217) 
8723

>  <target_id>  (217) 
1

>  <reference_id>  (217) 
99

>  <inspiration_ids>  (217) 
[123, 99]

>  <energy_score>  (217) 
254.81788234982776

>  <distance_score>  (217) 
14.196747693469264

>  <path>  (217) 
/opt/xchem-fragalysis-2/maxwin/BulkDock/SCRATCH/511015/C8723-P99/C8723-P99.minimised.mol

>  <scratch_subdir>  (217) 
/opt/xchem-fragalysis-2/maxwin/BulkDock/SCRATCH/511015/C8723-P99

>  <fragmenstein_runtime>  (217) 
48.84111666679382

>  <fragmenstein_outcome>  (217) 
too moved

>  <fragmenstein_mode>  (217) 
expansion

>  <fragmenstein_error>  (217) 


$$$$
C8726-P123
     RDKit          3D

 55 57  0  0  0  0  0  0  0  0999 V2000
   -6.3796  -13.3075   13.2072 C   0  0  0  0  0  0  0  0  0  0  0  0
   -7.7800  -12.9074   13.6628 C   0  0  0  0  0  0  0  0  0  0  0  0
   -8.2290  -13.7050   14.9055 C   0  0  0  0  0  0  0  0  0  0  0  0
   -8.3688  -15.1750   14.7250 N   0  0  0  0  0  0  0  0  0  0  0  0
   -8.1489  -15.8546   16.0438 C   0  0  0  0  0  0  0  0  0  0  0  0
   -8.4696  -17.3509   16.1336 C   0  0  0  0  0  0  0  0  0  0  0  0
   -9.7324  -18.0029   16.0717 C   0  0  0  0  0  0  0  0  0  0  0  0
   -9.4892  -19.3329   16.3397 C   0  0  0  0  0  0  0  0  0  0  0  0
   -8.1376  -19.4401   16.5164 N   0  0  0  0  0  0  0  0  0  0  0  0
   -7.3253  -20.6376   16.6865 C   0  0  0  0  0  0  0  0  0  0  0  0
   -7.1182  -21.0324   18.1482 C   0  0  0  0  0  0  0  0  0  0  0  0
   -8.3316  -21.8905   18.4762 C   0  0  0  0  0  0  0  0  0  0  0  0
   -8.6543  -22.6367   17.1849 C   0  0  0  0  0  0  0  0  0  0  0  0
   -7.9074  -21.9119   16.0619 C   0  0  0  0  0  0  0  0  0  0  0  0
   -7.5127  -18.2401   16.4635 N   0  0  0  0  0  0  0  0  0  0  0  0
   -7.8396  -11.4729   13.9342 N   0  0  0  0  0  0  0  0  0  0  0  0
   -7.2492  -10.6823   14.9931 C   0  0  0  0  0  0  0  0  0  0  0  0
   -6.4961  -10.9913   15.8729 O   0  0  0  0  0  0  0  0  0  0  0  0
   -7.7696   -9.2275   14.9141 C   0  0  0  0  0  0  0  0  0  0  0  0
   -6.8691   -8.2736   14.2626 N   0  0  0  0  0  0  0  0  0  0  0  0
   -5.8345   -7.6934   15.0989 C   0  0  0  0  0  0  0  0  0  0  0  0
   -5.0832   -6.8547   14.0807 C   0  0  0  0  0  0  0  0  0  0  0  0
   -5.1441   -7.6869   12.8036 C   0  0  0  0  0  0  0  0  0  0  0  0
   -6.2123   -8.7310   13.0474 C   0  0  0  0  0  0  0  0  0  0  0  0
   -6.0702  -12.7163   12.3390 H   0  0  0  0  0  0  0  0  0  0  0  0
   -6.3417  -14.3637   12.9226 H   0  0  0  0  0  0  0  0  0  0  0  0
   -5.6396  -13.1403   13.9974 H   0  0  0  0  0  0  0  0  0  0  0  0
   -8.4865  -13.0878   12.8441 H   0  0  0  0  0  0  0  0  0  0  0  0
   -9.1902  -13.3149   15.2652 H   0  0  0  0  0  0  0  0  0  0  0  0
   -7.5041  -13.5061   15.7064 H   0  0  0  0  0  0  0  0  0  0  0  0
   -9.3063  -15.3944   14.3996 H   0  0  0  0  0  0  0  0  0  0  0  0
   -8.7542  -15.3546   16.8091 H   0  0  0  0  0  0  0  0  0  0  0  0
   -7.0919  -15.7222   16.3030 H   0  0  0  0  0  0  0  0  0  0  0  0
  -10.6946  -17.5581   15.8739 H   0  0  0  0  0  0  0  0  0  0  0  0
  -10.1512  -20.1840   16.3983 H   0  0  0  0  0  0  0  0  0  0  0  0
   -6.3621  -20.4099   16.2124 H   0  0  0  0  0  0  0  0  0  0  0  0
   -7.0129  -20.1827   18.8283 H   0  0  0  0  0  0  0  0  0  0  0  0
   -6.2108  -21.6429   18.2375 H   0  0  0  0  0  0  0  0  0  0  0  0
   -9.1803  -21.2588   18.7611 H   0  0  0  0  0  0  0  0  0  0  0  0
   -8.1383  -22.5740   19.3086 H   0  0  0  0  0  0  0  0  0  0  0  0
   -9.7344  -22.6486   17.0046 H   0  0  0  0  0  0  0  0  0  0  0  0
   -8.3244  -23.6799   17.2444 H   0  0  0  0  0  0  0  0  0  0  0  0
   -8.5470  -21.7279   15.1929 H   0  0  0  0  0  0  0  0  0  0  0  0
   -7.0849  -22.5539   15.7212 H   0  0  0  0  0  0  0  0  0  0  0  0
   -8.3653  -10.8618   13.3181 H   0  0  0  0  0  0  0  0  0  0  0  0
   -8.7326   -9.2131   14.3907 H   0  0  0  0  0  0  0  0  0  0  0  0
   -8.0071   -8.9004   15.9344 H   0  0  0  0  0  0  0  0  0  0  0  0
   -5.1801   -8.4582   15.5338 H   0  0  0  0  0  0  0  0  0  0  0  0
   -6.2414   -7.0721   15.9025 H   0  0  0  0  0  0  0  0  0  0  0  0
   -5.5876   -5.8936   13.9232 H   0  0  0  0  0  0  0  0  0  0  0  0
   -4.0599   -6.6519   14.4083 H   0  0  0  0  0  0  0  0  0  0  0  0
   -5.3864   -7.0637   11.9397 H   0  0  0  0  0  0  0  0  0  0  0  0
   -4.1904   -8.1937   12.6216 H   0  0  0  0  0  0  0  0  0  0  0  0
   -6.9114   -8.7844   12.2154 H   0  0  0  0  0  0  0  0  0  0  0  0
   -5.7272   -9.7061   13.1671 H   0  0  0  0  0  0  0  0  0  0  0  0
  1  2  1  0
  2  3  1  0
  3  4  1  0
  4  5  1  0
  5  6  1  0
  6  7  1  0
  7  8  2  0
  8  9  1  0
  9 10  1  0
 10 11  1  0
 11 12  1  0
 12 13  1  0
 13 14  1  0
  9 15  1  0
  2 16  1  0
 16 17  1  0
 17 18  2  0
 17 19  1  0
 19 20  1  0
 20 21  1  0
 21 22  1  0
 22 23  1  0
 23 24  1  0
 15  6  2  0
 24 20  1  0
 14 10  1  0
  1 25  1  0
  1 26  1  0
  1 27  1  0
  2 28  1  0
  3 29  1  0
  3 30  1  0
  4 31  1  0
  5 32  1  0
  5 33  1  0
  7 34  1  0
  8 35  1  0
 10 36  1  0
 11 37  1  0
 11 38  1  0
 12 39  1  0
 12 40  1  0
 13 41  1  0
 13 42  1  0
 14 43  1  0
 14 44  1  0
 16 45  1  0
 19 46  1  0
 19 47  1  0
 21 48  1  0
 21 49  1  0
 22 50  1  0
 22 51  1  0
 23 52  1  0
 23 53  1  0
 24 54  1  0
 24 55  1  0
M  END
>  <Energy>  (218) 
92.716918413907933

>  <compound_id>  (218) 
8726

>  <target_id>  (218) 
1

>  <reference_id>  (218) 
123

>  <inspiration_ids>  (218) 
[123, 99]

>  <energy_score>  (218) 
-33.2899070351566

>  <distance_score>  (218) 
13.427409565722426

>  <path>  (218) 
/opt/xchem-fragalysis-2/maxwin/BulkDock/SCRATCH/511015/C8726-P123/C8726-P123.minimised.mol

>  <scratch_subdir>  (218) 
/opt/xchem-fragalysis-2/maxwin/BulkDock/SCRATCH/511015/C8726-P123

>  <fragmenstein_runtime>  (218) 
60.57525324821472

>  <fragmenstein_outcome>  (218) 
too moved

>  <fragmenstein_mode>  (218) 
expansion

>  <fragmenstein_error>  (218) 


$$$$
C8726-P99
     RDKit          3D

 55 57  0  0  0  0  0  0  0  0999 V2000
   -8.9218  -14.3460   15.9969 C   0  0  0  0  0  0  0  0  0  0  0  0
   -8.1611  -13.7837   17.1804 C   0  0  0  0  0  0  0  0  0  0  0  0
   -8.6491  -14.2024   18.7576 C   0  0  0  0  0  0  0  0  0  0  0  0
   -8.6221  -15.6862   19.5358 N   0  0  0  0  0  0  0  0  0  0  0  0
   -7.4909  -16.5493   20.7551 C   0  0  0  0  0  0  0  0  0  0  0  0
   -6.4417  -17.8400   20.6150 C   0  0  0  0  0  0  0  0  0  0  0  0
   -6.1519  -18.7036   21.7401 C   0  0  0  0  0  0  0  0  0  0  0  0
   -5.5797  -19.8277   21.2168 C   0  0  0  0  0  0  0  0  0  0  0  0
   -5.5271  -19.6053   19.8715 N   0  0  0  0  0  0  0  0  0  0  0  0
   -5.0594  -20.5255   18.8481 C   0  0  0  0  0  0  0  0  0  0  0  0
   -3.6811  -21.1445   19.1414 C   0  0  0  0  0  0  0  0  0  0  0  0
   -3.9488  -22.6250   19.3811 C   0  0  0  0  0  0  0  0  0  0  0  0
   -5.1246  -22.9229   18.4672 C   0  0  0  0  0  0  0  0  0  0  0  0
   -6.0224  -21.7058   18.6388 C   0  0  0  0  0  0  0  0  0  0  0  0
   -6.0046  -18.3977   19.4824 N   0  0  0  0  0  0  0  0  0  0  0  0
   -7.9519  -12.3290   16.9323 N   0  0  0  0  0  0  0  0  0  0  0  0
   -7.0626  -11.6332   15.9930 C   0  0  0  0  0  0  0  0  0  0  0  0
   -6.2259  -12.0616   15.2479 O   0  0  0  0  0  0  0  0  0  0  0  0
   -7.3668  -10.0750   15.9835 C   0  0  0  0  0  0  0  0  0  0  0  0
   -6.3716   -9.2433   15.2325 N   0  0  0  0  0  0  0  0  0  0  0  0
   -6.5480   -7.7983   15.4110 C   0  0  0  0  0  0  0  0  0  0  0  0
   -5.6851   -7.1730   14.3135 C   0  0  0  0  0  0  0  0  0  0  0  0
   -5.5421   -8.2616   13.2572 C   0  0  0  0  0  0  0  0  0  0  0  0
   -6.3842   -9.4286   13.7734 C   0  0  0  0  0  0  0  0  0  0  0  0
   -9.0432  -15.4280   16.0912 H   0  0  0  0  0  0  0  0  0  0  0  0
   -8.3528  -14.1913   15.0698 H   0  0  0  0  0  0  0  0  0  0  0  0
   -9.8596  -13.8090   15.8377 H   0  0  0  0  0  0  0  0  0  0  0  0
   -7.1819  -14.1919   16.9332 H   0  0  0  0  0  0  0  0  0  0  0  0
   -8.1479  -13.5285   19.4318 H   0  0  0  0  0  0  0  0  0  0  0  0
   -9.6961  -13.9213   18.7659 H   0  0  0  0  0  0  0  0  0  0  0  0
   -9.5791  -15.8095   19.8406 H   0  0  0  0  0  0  0  0  0  0  0  0
   -7.7068  -16.3352   21.7505 H   0  0  0  0  0  0  0  0  0  0  0  0
   -8.1049  -17.3379   21.2531 H   0  0  0  0  0  0  0  0  0  0  0  0
   -6.4121  -18.5253   22.7704 H   0  0  0  0  0  0  0  0  0  0  0  0
   -5.2420  -20.7485   21.6674 H   0  0  0  0  0  0  0  0  0  0  0  0
   -4.9832  -19.9464   17.9181 H   0  0  0  0  0  0  0  0  0  0  0  0
   -3.0444  -21.0366   18.2540 H   0  0  0  0  0  0  0  0  0  0  0  0
   -3.1489  -20.6837   19.9794 H   0  0  0  0  0  0  0  0  0  0  0  0
   -4.2277  -22.7964   20.4272 H   0  0  0  0  0  0  0  0  0  0  0  0
   -3.0772  -23.2453   19.1538 H   0  0  0  0  0  0  0  0  0  0  0  0
   -4.7871  -22.9999   17.4268 H   0  0  0  0  0  0  0  0  0  0  0  0
   -5.6334  -23.8543   18.7316 H   0  0  0  0  0  0  0  0  0  0  0  0
   -6.6646  -21.5540   17.7649 H   0  0  0  0  0  0  0  0  0  0  0  0
   -6.6816  -21.8525   19.5031 H   0  0  0  0  0  0  0  0  0  0  0  0
   -8.5910  -11.6598   17.3408 H   0  0  0  0  0  0  0  0  0  0  0  0
   -8.3751   -9.9279   15.5789 H   0  0  0  0  0  0  0  0  0  0  0  0
   -7.3586   -9.7522   17.0318 H   0  0  0  0  0  0  0  0  0  0  0  0
   -6.2225   -7.4713   16.4037 H   0  0  0  0  0  0  0  0  0  0  0  0
   -7.5971   -7.5082   15.2833 H   0  0  0  0  0  0  0  0  0  0  0  0
   -6.1401   -6.2639   13.9092 H   0  0  0  0  0  0  0  0  0  0  0  0
   -4.6966   -6.9043   14.7040 H   0  0  0  0  0  0  0  0  0  0  0  0
   -5.8673   -7.9298   12.2680 H   0  0  0  0  0  0  0  0  0  0  0  0
   -4.4894   -8.5585   13.1769 H   0  0  0  0  0  0  0  0  0  0  0  0
   -5.9467  -10.3805   13.4623 H   0  0  0  0  0  0  0  0  0  0  0  0
   -7.4037   -9.3655   13.3756 H   0  0  0  0  0  0  0  0  0  0  0  0
  1  2  1  0
  2  3  1  0
  3  4  1  0
  4  5  1  0
  5  6  1  0
  6  7  1  0
  7  8  2  0
  8  9  1  0
  9 10  1  0
 10 11  1  0
 11 12  1  0
 12 13  1  0
 13 14  1  0
  9 15  1  0
  2 16  1  0
 16 17  1  0
 17 18  2  0
 17 19  1  0
 19 20  1  0
 20 21  1  0
 21 22  1  0
 22 23  1  0
 23 24  1  0
 15  6  2  0
 24 20  1  0
 14 10  1  0
  1 25  1  0
  1 26  1  0
  1 27  1  0
  2 28  1  0
  3 29  1  0
  3 30  1  0
  4 31  1  0
  5 32  1  0
  5 33  1  0
  7 34  1  0
  8 35  1  0
 10 36  1  0
 11 37  1  0
 11 38  1  0
 12 39  1  0
 12 40  1  0
 13 41  1  0
 13 42  1  0
 14 43  1  0
 14 44  1  0
 16 45  1  0
 19 46  1  0
 19 47  1  0
 21 48  1  0
 21 49  1  0
 22 50  1  0
 22 51  1  0
 23 52  1  0
 23 53  1  0
 24 54  1  0
 24 55  1  0
M  END
>  <Energy>  (219) 
267.52769369831572

>  <compound_id>  (219) 
8726

>  <target_id>  (219) 
1

>  <reference_id>  (219) 
99

>  <inspiration_ids>  (219) 
[123, 99]

>  <energy_score>  (219) 
141.52086824924208

>  <distance_score>  (219) 
13.155143817288195

>  <path>  (219) 
/opt/xchem-fragalysis-2/maxwin/BulkDock/SCRATCH/511015/C8726-P99/C8726-P99.minimised.mol

>  <scratch_subdir>  (219) 
/opt/xchem-fragalysis-2/maxwin/BulkDock/SCRATCH/511015/C8726-P99

>  <fragmenstein_runtime>  (219) 
42.36435556411743

>  <fragmenstein_outcome>  (219) 
too moved

>  <fragmenstein_mode>  (219) 
expansion

>  <fragmenstein_error>  (219) 


$$$$
C8728-P123
     RDKit          3D

 58 60  0  0  0  0  0  0  0  0999 V2000
   -6.9197  -13.4238   14.8507 C   0  0  0  0  0  0  0  0  0  0  0  0
   -6.7138  -13.4254   16.3708 C   0  0  0  0  0  0  0  0  0  0  0  0
   -7.7137  -12.6338   17.1562 N   0  0  0  0  0  0  0  0  0  0  0  0
   -7.4464  -10.9538   16.5967 C   0  0  0  0  0  0  0  0  0  0  0  0
   -6.7368  -10.3518   14.9298 C   0  0  0  0  0  0  0  0  0  0  0  0
   -6.4681   -8.7975   14.1179 N   0  0  0  0  0  0  0  0  0  0  0  0
   -5.6440   -8.4391   12.7381 C   0  0  0  0  0  0  0  0  0  0  0  0
   -4.9741   -9.1661   12.0288 O   0  0  0  0  0  0  0  0  0  0  0  0
   -5.5687   -6.6786   12.1094 C   0  0  0  0  0  0  0  0  0  0  0  0
   -5.3065   -6.2447   10.3888 N   0  0  0  0  0  0  0  0  0  0  0  0
   -4.0692   -5.2468    9.3198 C   0  0  0  0  0  0  0  0  0  0  0  0
   -4.5610   -3.9973    7.8200 C   0  0  0  0  0  0  0  0  0  0  0  0
   -6.3995   -4.3901    7.8168 C   0  0  0  0  0  0  0  0  0  0  0  0
   -6.6546   -5.5189    9.3663 C   0  0  0  0  0  0  0  0  0  0  0  0
   -8.2462  -13.3238   18.8560 C   0  0  0  0  0  0  0  0  0  0  0  0
   -8.7585  -15.0821   19.6708 C   0  0  0  0  0  0  0  0  0  0  0  0
   -8.6420  -16.0320   18.8592 C   0  0  0  0  0  0  0  0  0  0  0  0
   -9.5160  -16.4082   20.1418 C   0  0  0  0  0  0  0  0  0  0  0  0
   -9.0947  -17.9315   21.4062 N   0  0  0  0  0  0  0  0  0  0  0  0
  -10.8464  -19.4120   21.7690 C   0  0  0  0  0  0  0  0  0  0  0  0
  -10.2448  -21.2116   21.2098 C   0  0  0  0  0  0  0  0  0  0  0  0
  -11.3274  -22.2249   21.4065 C   0  0  0  0  0  0  0  0  0  0  0  0
  -11.8159  -21.8917   22.7742 C   0  0  0  0  0  0  0  0  0  0  0  0
  -11.1796  -20.5412   23.1876 C   0  0  0  0  0  0  0  0  0  0  0  0
   -8.1582  -16.2953   20.9020 N   0  0  0  0  0  0  0  0  0  0  0  0
   -6.8573  -14.4482   14.4633 H   0  0  0  0  0  0  0  0  0  0  0  0
   -7.8993  -13.0364   14.5570 H   0  0  0  0  0  0  0  0  0  0  0  0
   -6.1345  -12.8615   14.3415 H   0  0  0  0  0  0  0  0  0  0  0  0
   -5.7005  -13.0799   16.6088 H   0  0  0  0  0  0  0  0  0  0  0  0
   -6.7568  -14.4917   16.5963 H   0  0  0  0  0  0  0  0  0  0  0  0
   -6.7665  -10.5485   17.3530 H   0  0  0  0  0  0  0  0  0  0  0  0
   -8.4387  -10.5008   16.6795 H   0  0  0  0  0  0  0  0  0  0  0  0
   -7.3781  -10.8394   14.1889 H   0  0  0  0  0  0  0  0  0  0  0  0
   -5.7334  -10.7874   14.8885 H   0  0  0  0  0  0  0  0  0  0  0  0
   -6.9908   -7.9871   14.4184 H   0  0  0  0  0  0  0  0  0  0  0  0
   -6.4268   -6.1456   12.5146 H   0  0  0  0  0  0  0  0  0  0  0  0
   -4.8214   -6.1948   12.7225 H   0  0  0  0  0  0  0  0  0  0  0  0
   -3.4585   -5.9504    8.8389 H   0  0  0  0  0  0  0  0  0  0  0  0
   -3.4951   -4.6448    9.9171 H   0  0  0  0  0  0  0  0  0  0  0  0
   -3.9990   -4.3194    6.9364 H   0  0  0  0  0  0  0  0  0  0  0  0
   -4.3808   -2.9043    7.8540 H   0  0  0  0  0  0  0  0  0  0  0  0
   -6.6863   -4.8979    6.8814 H   0  0  0  0  0  0  0  0  0  0  0  0
   -7.0196   -3.4786    7.8036 H   0  0  0  0  0  0  0  0  0  0  0  0
   -7.3157   -4.9674    9.9610 H   0  0  0  0  0  0  0  0  0  0  0  0
   -7.0103   -6.5156    9.2211 H   0  0  0  0  0  0  0  0  0  0  0  0
   -7.4219  -12.9411   19.4448 H   0  0  0  0  0  0  0  0  0  0  0  0
   -9.1850  -12.7911   18.9085 H   0  0  0  0  0  0  0  0  0  0  0  0
   -8.7511  -16.1188   17.7965 H   0  0  0  0  0  0  0  0  0  0  0  0
  -10.5173  -16.2666   19.7000 H   0  0  0  0  0  0  0  0  0  0  0  0
  -11.5739  -19.6913   20.9239 H   0  0  0  0  0  0  0  0  0  0  0  0
   -9.8424  -21.2207   20.1975 H   0  0  0  0  0  0  0  0  0  0  0  0
   -9.4314  -21.4703   21.8956 H   0  0  0  0  0  0  0  0  0  0  0  0
  -12.1017  -22.1471   20.6470 H   0  0  0  0  0  0  0  0  0  0  0  0
  -10.9334  -23.2452   21.3554 H   0  0  0  0  0  0  0  0  0  0  0  0
  -11.5037  -22.6622   23.4913 H   0  0  0  0  0  0  0  0  0  0  0  0
  -12.9055  -21.8862   22.8214 H   0  0  0  0  0  0  0  0  0  0  0  0
  -11.8778  -20.2206   23.9578 H   0  0  0  0  0  0  0  0  0  0  0  0
  -10.3000  -20.8107   23.6836 H   0  0  0  0  0  0  0  0  0  0  0  0
  1  2  1  0
  2  3  1  0
  3  4  1  0
  4  5  1  0
  5  6  1  0
  6  7  1  0
  7  8  2  0
  7  9  1  0
  9 10  1  0
 10 11  1  0
 11 12  1  0
 12 13  1  0
 13 14  1  0
  3 15  1  0
 15 16  1  0
 16 17  1  0
 17 18  2  0
 18 19  1  0
 19 20  1  0
 20 21  1  0
 21 22  1  0
 22 23  1  0
 23 24  1  0
 19 25  1  0
 14 10  1  0
 25 16  2  0
 24 20  1  0
  1 26  1  0
  1 27  1  0
  1 28  1  0
  2 29  1  0
  2 30  1  0
  4 31  1  0
  4 32  1  0
  5 33  1  0
  5 34  1  0
  6 35  1  0
  9 36  1  0
  9 37  1  0
 11 38  1  0
 11 39  1  0
 12 40  1  0
 12 41  1  0
 13 42  1  0
 13 43  1  0
 14 44  1  0
 14 45  1  0
 15 46  1  0
 15 47  1  0
 17 48  1  0
 18 49  1  0
 20 50  1  0
 21 51  1  0
 21 52  1  0
 22 53  1  0
 22 54  1  0
 23 55  1  0
 23 56  1  0
 24 57  1  0
 24 58  1  0
M  END
>  <Energy>  (220) 
1855.1556183945092

>  <compound_id>  (220) 
8728

>  <target_id>  (220) 
1

>  <reference_id>  (220) 
123

>  <inspiration_ids>  (220) 
[123, 99]

>  <energy_score>  (220) 
1709.9542076858522

>  <distance_score>  (220) 
11.04614856573888

>  <path>  (220) 
/opt/xchem-fragalysis-2/maxwin/BulkDock/SCRATCH/511015/C8728-P123/C8728-P123.minimised.mol

>  <scratch_subdir>  (220) 
/opt/xchem-fragalysis-2/maxwin/BulkDock/SCRATCH/511015/C8728-P123

>  <fragmenstein_runtime>  (220) 
60.057252168655396

>  <fragmenstein_outcome>  (220) 
too moved

>  <fragmenstein_mode>  (220) 
expansion

>  <fragmenstein_error>  (220) 


$$$$
C8728-P99
     RDKit          3D

 58 60  0  0  0  0  0  0  0  0999 V2000
   -8.3711  -13.9106   19.1635 C   0  0  0  0  0  0  0  0  0  0  0  0
   -9.5140  -15.4830   19.3120 C   0  0  0  0  0  0  0  0  0  0  0  0
  -11.3878  -15.3911   20.0340 N   0  0  0  0  0  0  0  0  0  0  0  0
  -10.4846  -13.5939   19.6229 C   0  0  0  0  0  0  0  0  0  0  0  0
  -10.4325  -12.0806   18.2351 C   0  0  0  0  0  0  0  0  0  0  0  0
   -9.6482  -11.6148   17.0474 N   0  0  0  0  0  0  0  0  0  0  0  0
   -8.3821  -10.8686   16.9594 C   0  0  0  0  0  0  0  0  0  0  0  0
   -7.6408  -10.4801   17.8230 O   0  0  0  0  0  0  0  0  0  0  0  0
   -7.9617  -10.6839   15.4502 C   0  0  0  0  0  0  0  0  0  0  0  0
   -7.5698   -9.3157   14.9851 N   0  0  0  0  0  0  0  0  0  0  0  0
   -6.5503   -8.6456   15.8006 C   0  0  0  0  0  0  0  0  0  0  0  0
   -5.9878   -7.5823   14.8629 C   0  0  0  0  0  0  0  0  0  0  0  0
   -5.9121   -8.3069   13.5346 C   0  0  0  0  0  0  0  0  0  0  0  0
   -6.9696   -9.4054   13.6324 C   0  0  0  0  0  0  0  0  0  0  0  0
  -11.6582  -15.9922   22.0490 C   0  0  0  0  0  0  0  0  0  0  0  0
  -10.8459  -17.1777   23.6227 C   0  0  0  0  0  0  0  0  0  0  0  0
   -9.8102  -18.8483   23.3608 C   0  0  0  0  0  0  0  0  0  0  0  0
  -10.3552  -20.3880   23.5421 C   0  0  0  0  0  0  0  0  0  0  0  0
  -11.5246  -20.1433   24.1963 N   0  0  0  0  0  0  0  0  0  0  0  0
  -12.2256  -21.4150   24.4114 C   0  0  0  0  0  0  0  0  0  0  0  0
  -12.1740  -22.5246   23.2768 C   0  0  0  0  0  0  0  0  0  0  0  0
  -12.8307  -23.7234   23.9398 C   0  0  0  0  0  0  0  0  0  0  0  0
  -12.1710  -23.7508   25.3043 C   0  0  0  0  0  0  0  0  0  0  0  0
  -11.6838  -22.3205   25.5611 C   0  0  0  0  0  0  0  0  0  0  0  0
  -11.4149  -18.2699   24.7055 N   0  0  0  0  0  0  0  0  0  0  0  0
   -7.5983  -13.7558   19.8572 H   0  0  0  0  0  0  0  0  0  0  0  0
   -7.9451  -13.7899   18.1716 H   0  0  0  0  0  0  0  0  0  0  0  0
   -8.7274  -12.9169   19.0260 H   0  0  0  0  0  0  0  0  0  0  0  0
   -8.8998  -16.0587   19.9660 H   0  0  0  0  0  0  0  0  0  0  0  0
   -9.4090  -15.8857   18.3178 H   0  0  0  0  0  0  0  0  0  0  0  0
  -10.3883  -14.0237   18.7164 H   0  0  0  0  0  0  0  0  0  0  0  0
   -9.7820  -13.3459   20.4586 H   0  0  0  0  0  0  0  0  0  0  0  0
   -9.8573  -11.2544   18.6833 H   0  0  0  0  0  0  0  0  0  0  0  0
  -11.4328  -11.6319   18.0955 H   0  0  0  0  0  0  0  0  0  0  0  0
  -10.0481  -11.7004   16.1202 H   0  0  0  0  0  0  0  0  0  0  0  0
   -7.1262  -11.3846   15.3133 H   0  0  0  0  0  0  0  0  0  0  0  0
   -8.7710  -11.0268   14.7965 H   0  0  0  0  0  0  0  0  0  0  0  0
   -5.7522   -9.3380   16.0970 H   0  0  0  0  0  0  0  0  0  0  0  0
   -6.9789   -8.1877   16.6969 H   0  0  0  0  0  0  0  0  0  0  0  0
   -5.0108   -7.2142   15.1898 H   0  0  0  0  0  0  0  0  0  0  0  0
   -6.6695   -6.7268   14.8001 H   0  0  0  0  0  0  0  0  0  0  0  0
   -4.9272   -8.7744   13.4272 H   0  0  0  0  0  0  0  0  0  0  0  0
   -6.0566   -7.6354   12.6868 H   0  0  0  0  0  0  0  0  0  0  0  0
   -6.4735  -10.3701   13.4666 H   0  0  0  0  0  0  0  0  0  0  0  0
   -7.7444   -9.3069   12.8702 H   0  0  0  0  0  0  0  0  0  0  0  0
  -11.4025  -15.1222   22.6593 H   0  0  0  0  0  0  0  0  0  0  0  0
  -12.7335  -16.2485   22.0788 H   0  0  0  0  0  0  0  0  0  0  0  0
  -10.6013  -19.6967   22.5612 H   0  0  0  0  0  0  0  0  0  0  0  0
  -10.0692  -21.3119   23.0126 H   0  0  0  0  0  0  0  0  0  0  0  0
  -13.2609  -21.1532   24.2720 H   0  0  0  0  0  0  0  0  0  0  0  0
  -11.1653  -22.8369   22.9914 H   0  0  0  0  0  0  0  0  0  0  0  0
  -12.6914  -22.2398   22.3649 H   0  0  0  0  0  0  0  0  0  0  0  0
  -12.6714  -24.6510   23.3826 H   0  0  0  0  0  0  0  0  0  0  0  0
  -13.9109  -23.5644   24.0375 H   0  0  0  0  0  0  0  0  0  0  0  0
  -12.8606  -24.0979   26.0702 H   0  0  0  0  0  0  0  0  0  0  0  0
  -11.3180  -24.4400   25.3081 H   0  0  0  0  0  0  0  0  0  0  0  0
  -11.8979  -21.9974   26.5810 H   0  0  0  0  0  0  0  0  0  0  0  0
  -10.6001  -22.3651   25.5231 H   0  0  0  0  0  0  0  0  0  0  0  0
  1  2  1  0
  2  3  1  0
  3  4  1  0
  4  5  1  0
  5  6  1  0
  6  7  1  0
  7  8  2  0
  7  9  1  0
  9 10  1  0
 10 11  1  0
 11 12  1  0
 12 13  1  0
 13 14  1  0
  3 15  1  0
 15 16  1  0
 16 17  1  0
 17 18  2  0
 18 19  1  0
 19 20  1  0
 20 21  1  0
 21 22  1  0
 22 23  1  0
 23 24  1  0
 19 25  1  0
 14 10  1  0
 25 16  2  0
 24 20  1  0
  1 26  1  0
  1 27  1  0
  1 28  1  0
  2 29  1  0
  2 30  1  0
  4 31  1  0
  4 32  1  0
  5 33  1  0
  5 34  1  0
  6 35  1  0
  9 36  1  0
  9 37  1  0
 11 38  1  0
 11 39  1  0
 12 40  1  0
 12 41  1  0
 13 42  1  0
 13 43  1  0
 14 44  1  0
 14 45  1  0
 15 46  1  0
 15 47  1  0
 17 48  1  0
 18 49  1  0
 20 50  1  0
 21 51  1  0
 21 52  1  0
 22 53  1  0
 22 54  1  0
 23 55  1  0
 23 56  1  0
 24 57  1  0
 24 58  1  0
M  END
>  <Energy>  (221) 
1342.6044715064538

>  <compound_id>  (221) 
8728

>  <target_id>  (221) 
1

>  <reference_id>  (221) 
99

>  <inspiration_ids>  (221) 
[123, 99]

>  <energy_score>  (221) 
1197.4030607977488

>  <distance_score>  (221) 
12.127629178715388

>  <path>  (221) 
/opt/xchem-fragalysis-2/maxwin/BulkDock/SCRATCH/511015/C8728-P99/C8728-P99.minimised.mol

>  <scratch_subdir>  (221) 
/opt/xchem-fragalysis-2/maxwin/BulkDock/SCRATCH/511015/C8728-P99

>  <fragmenstein_runtime>  (221) 
57.10650420188904

>  <fragmenstein_outcome>  (221) 
too moved

>  <fragmenstein_mode>  (221) 
expansion

>  <fragmenstein_error>  (221) 


$$$$
C8730-P123
     RDKit          3D

 44 46  0  0  0  0  0  0  0  0999 V2000
   -6.0570   -7.7700   10.2058 O   0  0  0  0  0  0  0  0  0  0  0  0
   -6.8474   -8.2763    9.4355 C   0  0  0  0  0  0  0  0  0  0  0  0
   -7.2142   -9.8063    9.5595 C   0  0  0  0  0  0  0  0  0  0  0  0
   -6.7127  -10.6976   10.6891 C   0  0  0  0  0  0  0  0  0  0  0  0
   -5.6728  -10.4771   11.6118 C   0  0  0  0  0  0  0  0  0  0  0  0
   -5.4851  -11.6828   12.2586 C   0  0  0  0  0  0  0  0  0  0  0  0
   -6.4378  -12.5649   11.8052 N   0  0  0  0  0  0  0  0  0  0  0  0
   -6.5476  -14.0197   12.0828 C   0  0  0  0  0  0  0  0  0  0  0  0
   -5.3343  -14.7265   12.7461 C   0  0  0  0  0  0  0  0  0  0  0  0
   -5.8802  -16.0089   13.3619 C   0  0  0  0  0  0  0  0  0  0  0  0
   -7.2402  -15.6069   13.8798 C   0  0  0  0  0  0  0  0  0  0  0  0
   -7.7711  -14.5627   12.8789 C   0  0  0  0  0  0  0  0  0  0  0  0
   -7.1833  -11.9719   10.8118 N   0  0  0  0  0  0  0  0  0  0  0  0
   -7.6919   -7.6219    8.2272 N   0  0  0  0  0  0  0  0  0  0  0  0
   -7.8948   -5.4167    7.5345 S   0  0  0  0  0  0  0  0  0  0  0  0
   -7.8866   -4.6325    8.7418 O   0  0  0  0  0  0  0  0  0  0  0  0
   -9.1220   -5.4309    6.7662 O   0  0  0  0  0  0  0  0  0  0  0  0
   -6.7488   -4.6238    6.5363 N   0  0  0  0  0  0  0  0  0  0  0  0
   -6.4003   -3.1914    6.9941 C   0  0  0  0  0  0  0  0  0  0  0  0
   -6.5445   -2.2392    5.8224 C   0  0  0  0  0  0  0  0  0  0  0  0
   -6.3964   -3.1565    4.6622 C   0  0  0  0  0  0  0  0  0  0  0  0
   -7.1238   -4.3864    5.1155 C   0  0  0  0  0  0  0  0  0  0  0  0
   -6.7894  -10.2734    8.6647 H   0  0  0  0  0  0  0  0  0  0  0  0
   -8.3071   -9.8859    9.5221 H   0  0  0  0  0  0  0  0  0  0  0  0
   -5.0779   -9.5827   11.7433 H   0  0  0  0  0  0  0  0  0  0  0  0
   -4.7443  -11.9671   12.9898 H   0  0  0  0  0  0  0  0  0  0  0  0
   -6.6258  -14.4470   11.0708 H   0  0  0  0  0  0  0  0  0  0  0  0
   -4.8541  -14.1256   13.5169 H   0  0  0  0  0  0  0  0  0  0  0  0
   -4.5594  -14.9457   12.0027 H   0  0  0  0  0  0  0  0  0  0  0  0
   -5.2297  -16.4048   14.1471 H   0  0  0  0  0  0  0  0  0  0  0  0
   -5.9831  -16.7770   12.5862 H   0  0  0  0  0  0  0  0  0  0  0  0
   -7.8811  -16.4867   13.9304 H   0  0  0  0  0  0  0  0  0  0  0  0
   -7.1333  -15.1799   14.8774 H   0  0  0  0  0  0  0  0  0  0  0  0
   -8.3802  -13.7852   13.3426 H   0  0  0  0  0  0  0  0  0  0  0  0
   -8.4411  -15.0685   12.1707 H   0  0  0  0  0  0  0  0  0  0  0  0
   -8.3212   -8.3071    7.8464 H   0  0  0  0  0  0  0  0  0  0  0  0
   -7.0694   -2.7909    7.7532 H   0  0  0  0  0  0  0  0  0  0  0  0
   -5.3612   -3.1933    7.3300 H   0  0  0  0  0  0  0  0  0  0  0  0
   -5.8052   -1.4338    5.8429 H   0  0  0  0  0  0  0  0  0  0  0  0
   -7.5420   -1.7830    5.8232 H   0  0  0  0  0  0  0  0  0  0  0  0
   -6.7702   -2.7480    3.7203 H   0  0  0  0  0  0  0  0  0  0  0  0
   -5.3734   -3.4802    4.5393 H   0  0  0  0  0  0  0  0  0  0  0  0
   -8.1919   -4.1922    4.9900 H   0  0  0  0  0  0  0  0  0  0  0  0
   -6.7183   -5.1704    4.4868 H   0  0  0  0  0  0  0  0  0  0  0  0
  1  2  2  0
  2  3  1  0
  3  4  1  0
  4  5  1  0
  5  6  2  0
  6  7  1  0
  7  8  1  0
  8  9  1  0
  9 10  1  0
 10 11  1  0
 11 12  1  0
  7 13  1  0
  2 14  1  0
 14 15  1  0
 15 16  2  0
 15 17  2  0
 15 18  1  0
 18 19  1  0
 19 20  1  0
 20 21  1  0
 21 22  1  0
 13  4  2  0
 22 18  1  0
 12  8  1  0
  3 23  1  0
  3 24  1  0
  5 25  1  0
  6 26  1  0
  8 27  1  0
  9 28  1  0
  9 29  1  0
 10 30  1  0
 10 31  1  0
 11 32  1  0
 11 33  1  0
 12 34  1  0
 12 35  1  0
 14 36  1  0
 19 37  1  0
 19 38  1  0
 20 39  1  0
 20 40  1  0
 21 41  1  0
 21 42  1  0
 22 43  1  0
 22 44  1  0
M  END
>  <Energy>  (222) 
-24.341787271460451

>  <compound_id>  (222) 
8730

>  <target_id>  (222) 
1

>  <reference_id>  (222) 
123

>  <inspiration_ids>  (222) 
[123, 99]

>  <energy_score>  (222) 
68.48972123298608

>  <distance_score>  (222) 
13.022815429882149

>  <path>  (222) 
/opt/xchem-fragalysis-2/maxwin/BulkDock/SCRATCH/511015/C8730-P123/C8730-P123.minimised.mol

>  <scratch_subdir>  (222) 
/opt/xchem-fragalysis-2/maxwin/BulkDock/SCRATCH/511015/C8730-P123

>  <fragmenstein_runtime>  (222) 
76.03461217880249

>  <fragmenstein_outcome>  (222) 
too moved

>  <fragmenstein_mode>  (222) 
expansion

>  <fragmenstein_error>  (222) 


$$$$
C8730-P99
     RDKit          3D

 44 46  0  0  0  0  0  0  0  0999 V2000
   -4.8633  -14.4491   12.2187 O   0  0  0  0  0  0  0  0  0  0  0  0
   -6.0346  -14.2065   12.3520 C   0  0  0  0  0  0  0  0  0  0  0  0
   -6.9248  -15.2441   13.1217 C   0  0  0  0  0  0  0  0  0  0  0  0
   -6.2619  -16.0469   14.2309 C   0  0  0  0  0  0  0  0  0  0  0  0
   -5.0713  -15.7639   14.9374 C   0  0  0  0  0  0  0  0  0  0  0  0
   -4.9099  -16.8042   15.8277 C   0  0  0  0  0  0  0  0  0  0  0  0
   -6.0031  -17.6289   15.7070 N   0  0  0  0  0  0  0  0  0  0  0  0
   -6.1605  -18.9292   16.3853 C   0  0  0  0  0  0  0  0  0  0  0  0
   -7.5303  -19.6174   16.3290 C   0  0  0  0  0  0  0  0  0  0  0  0
   -7.4561  -20.7437   17.3740 C   0  0  0  0  0  0  0  0  0  0  0  0
   -6.4044  -20.3197   18.3986 C   0  0  0  0  0  0  0  0  0  0  0  0
   -5.8698  -18.9715   17.9068 C   0  0  0  0  0  0  0  0  0  0  0  0
   -6.8231  -17.1937   14.7006 N   0  0  0  0  0  0  0  0  0  0  0  0
   -6.8583  -13.0878   11.8122 N   0  0  0  0  0  0  0  0  0  0  0  0
   -6.4756  -11.8711   10.7674 S   0  0  0  0  0  0  0  0  0  0  0  0
   -7.7337  -11.4162   10.2111 O   0  0  0  0  0  0  0  0  0  0  0  0
   -5.3950  -12.2889    9.9096 O   0  0  0  0  0  0  0  0  0  0  0  0
   -5.9332  -10.6463   11.7751 N   0  0  0  0  0  0  0  0  0  0  0  0
   -4.4818  -10.4700   11.9663 C   0  0  0  0  0  0  0  0  0  0  0  0
   -4.3857   -9.1152   12.6527 C   0  0  0  0  0  0  0  0  0  0  0  0
   -5.4385   -8.2989   11.9349 C   0  0  0  0  0  0  0  0  0  0  0  0
   -6.5419   -9.3020   11.6135 C   0  0  0  0  0  0  0  0  0  0  0  0
   -7.7854  -14.7265   13.5587 H   0  0  0  0  0  0  0  0  0  0  0  0
   -7.3119  -15.9371   12.3642 H   0  0  0  0  0  0  0  0  0  0  0  0
   -4.3831  -14.9429   14.7905 H   0  0  0  0  0  0  0  0  0  0  0  0
   -4.1152  -17.0310   16.5227 H   0  0  0  0  0  0  0  0  0  0  0  0
   -5.4321  -19.5796   15.8794 H   0  0  0  0  0  0  0  0  0  0  0  0
   -7.7443  -20.0158   15.3315 H   0  0  0  0  0  0  0  0  0  0  0  0
   -8.3296  -18.9115   16.5669 H   0  0  0  0  0  0  0  0  0  0  0  0
   -7.1370  -21.6744   16.8897 H   0  0  0  0  0  0  0  0  0  0  0  0
   -8.4314  -20.9407   17.8293 H   0  0  0  0  0  0  0  0  0  0  0  0
   -6.8152  -20.2454   19.4101 H   0  0  0  0  0  0  0  0  0  0  0  0
   -5.5964  -21.0596   18.4279 H   0  0  0  0  0  0  0  0  0  0  0  0
   -6.3967  -18.1724   18.4259 H   0  0  0  0  0  0  0  0  0  0  0  0
   -4.8034  -18.8579   18.1264 H   0  0  0  0  0  0  0  0  0  0  0  0
   -7.8311  -13.2415   12.0567 H   0  0  0  0  0  0  0  0  0  0  0  0
   -3.9587  -10.4414   11.0049 H   0  0  0  0  0  0  0  0  0  0  0  0
   -4.0666  -11.2648   12.5915 H   0  0  0  0  0  0  0  0  0  0  0  0
   -3.3833   -8.6853   12.5956 H   0  0  0  0  0  0  0  0  0  0  0  0
   -4.6518   -9.2134   13.7125 H   0  0  0  0  0  0  0  0  0  0  0  0
   -5.7911   -7.4633   12.5453 H   0  0  0  0  0  0  0  0  0  0  0  0
   -5.0506   -7.8883   11.0015 H   0  0  0  0  0  0  0  0  0  0  0  0
   -7.3635   -9.2289   12.3307 H   0  0  0  0  0  0  0  0  0  0  0  0
   -6.9151   -9.1269   10.6009 H   0  0  0  0  0  0  0  0  0  0  0  0
  1  2  2  0
  2  3  1  0
  3  4  1  0
  4  5  1  0
  5  6  2  0
  6  7  1  0
  7  8  1  0
  8  9  1  0
  9 10  1  0
 10 11  1  0
 11 12  1  0
  7 13  1  0
  2 14  1  0
 14 15  1  0
 15 16  2  0
 15 17  2  0
 15 18  1  0
 18 19  1  0
 19 20  1  0
 20 21  1  0
 21 22  1  0
 13  4  2  0
 22 18  1  0
 12  8  1  0
  3 23  1  0
  3 24  1  0
  5 25  1  0
  6 26  1  0
  8 27  1  0
  9 28  1  0
  9 29  1  0
 10 30  1  0
 10 31  1  0
 11 32  1  0
 11 33  1  0
 12 34  1  0
 12 35  1  0
 14 36  1  0
 19 37  1  0
 19 38  1  0
 20 39  1  0
 20 40  1  0
 21 41  1  0
 21 42  1  0
 22 43  1  0
 22 44  1  0
M  END
>  <Energy>  (223) 
-171.02114398572149

>  <compound_id>  (223) 
8730

>  <target_id>  (223) 
1

>  <reference_id>  (223) 
99

>  <inspiration_ids>  (223) 
[123, 99]

>  <energy_score>  (223) 
-78.18963548127925

>  <distance_score>  (223) 
12.775957360251741

>  <path>  (223) 
/opt/xchem-fragalysis-2/maxwin/BulkDock/SCRATCH/511015/C8730-P99/C8730-P99.minimised.mol

>  <scratch_subdir>  (223) 
/opt/xchem-fragalysis-2/maxwin/BulkDock/SCRATCH/511015/C8730-P99

>  <fragmenstein_runtime>  (223) 
83.00711250305176

>  <fragmenstein_outcome>  (223) 
too moved

>  <fragmenstein_mode>  (223) 
expansion

>  <fragmenstein_error>  (223) 


$$$$
C8731-P123
     RDKit          3D

 58 60  0  0  0  0  0  0  0  0999 V2000
  -15.8974  -18.5598   12.1546 C   0  0  0  0  0  0  0  0  0  0  0  0
  -14.8309  -18.5468   13.2527 C   0  0  0  0  0  0  0  0  0  0  0  0
  -14.2803  -17.0895   13.4781 C   0  0  0  0  0  0  0  0  0  0  0  0
  -13.5992  -16.4234   12.2757 C   0  0  0  0  0  0  0  0  0  0  0  0
  -13.1115  -15.0950   12.6127 N   0  0  0  0  0  0  0  0  0  0  0  0
  -13.8071  -13.8503   12.7744 C   0  0  0  0  0  0  0  0  0  0  0  0
  -14.9788  -13.6001   12.7508 O   0  0  0  0  0  0  0  0  0  0  0  0
  -12.8122  -12.7157   13.1317 C   0  0  0  0  0  0  0  0  0  0  0  0
  -11.5786  -12.7296   12.2968 N   0  0  0  0  0  0  0  0  0  0  0  0
  -10.5348  -11.8931   12.9193 C   0  0  0  0  0  0  0  0  0  0  0  0
  -10.8934  -10.4647   12.5680 C   0  0  0  0  0  0  0  0  0  0  0  0
  -11.6610  -10.5676   11.2542 C   0  0  0  0  0  0  0  0  0  0  0  0
  -11.8097  -12.0608   10.9980 C   0  0  0  0  0  0  0  0  0  0  0  0
  -15.3895  -19.1512   14.5170 N   0  0  0  0  0  0  0  0  0  0  0  0
  -15.9085  -20.5582   14.4959 C   0  0  0  0  0  0  0  0  0  0  0  0
  -16.2180  -21.1714   15.9127 C   0  0  0  0  0  0  0  0  0  0  0  0
  -15.5726  -22.2414   16.5995 C   0  0  0  0  0  0  0  0  0  0  0  0
  -16.2410  -22.4151   17.7922 C   0  0  0  0  0  0  0  0  0  0  0  0
  -17.2470  -21.5006   17.7801 N   0  0  0  0  0  0  0  0  0  0  0  0
  -18.3782  -21.3798   18.6768 C   0  0  0  0  0  0  0  0  0  0  0  0
  -18.4921  -19.9992   19.3403 C   0  0  0  0  0  0  0  0  0  0  0  0
  -19.0052  -20.2452   20.7590 C   0  0  0  0  0  0  0  0  0  0  0  0
  -19.4366  -21.7032   20.7902 C   0  0  0  0  0  0  0  0  0  0  0  0
  -18.4614  -22.3746   19.8376 C   0  0  0  0  0  0  0  0  0  0  0  0
  -17.2495  -20.7293   16.6625 N   0  0  0  0  0  0  0  0  0  0  0  0
  -16.2500  -19.5753   11.9470 H   0  0  0  0  0  0  0  0  0  0  0  0
  -16.7624  -17.9486   12.4342 H   0  0  0  0  0  0  0  0  0  0  0  0
  -15.5005  -18.1754   11.2104 H   0  0  0  0  0  0  0  0  0  0  0  0
  -13.9901  -19.1743   12.9330 H   0  0  0  0  0  0  0  0  0  0  0  0
  -15.0989  -16.4499   13.8328 H   0  0  0  0  0  0  0  0  0  0  0  0
  -13.5457  -17.1370   14.2886 H   0  0  0  0  0  0  0  0  0  0  0  0
  -14.3051  -16.2995   11.4501 H   0  0  0  0  0  0  0  0  0  0  0  0
  -12.7455  -17.0159   11.9339 H   0  0  0  0  0  0  0  0  0  0  0  0
  -12.1073  -14.9156   12.6095 H   0  0  0  0  0  0  0  0  0  0  0  0
  -12.5544  -12.8839   14.1852 H   0  0  0  0  0  0  0  0  0  0  0  0
  -13.3434  -11.7580   13.0760 H   0  0  0  0  0  0  0  0  0  0  0  0
   -9.5661  -12.1664   12.4845 H   0  0  0  0  0  0  0  0  0  0  0  0
  -10.4434  -12.0486   13.9998 H   0  0  0  0  0  0  0  0  0  0  0  0
  -11.5384  -10.0297   13.3405 H   0  0  0  0  0  0  0  0  0  0  0  0
   -9.9903   -9.8600   12.5073 H   0  0  0  0  0  0  0  0  0  0  0  0
  -11.1525  -10.0866   10.4173 H   0  0  0  0  0  0  0  0  0  0  0  0
  -12.6445  -10.0960   11.3616 H   0  0  0  0  0  0  0  0  0  0  0  0
  -12.7757  -12.3144   10.5480 H   0  0  0  0  0  0  0  0  0  0  0  0
  -11.0375  -12.3960   10.2950 H   0  0  0  0  0  0  0  0  0  0  0  0
  -14.6844  -19.1376   15.2638 H   0  0  0  0  0  0  0  0  0  0  0  0
  -15.1905  -21.2133   13.9943 H   0  0  0  0  0  0  0  0  0  0  0  0
  -16.8464  -20.5864   13.9300 H   0  0  0  0  0  0  0  0  0  0  0  0
  -14.7471  -22.8354   16.2522 H   0  0  0  0  0  0  0  0  0  0  0  0
  -16.1002  -23.1359   18.5812 H   0  0  0  0  0  0  0  0  0  0  0  0
  -19.2662  -21.5328   18.0458 H   0  0  0  0  0  0  0  0  0  0  0  0
  -19.1927  -19.3687   18.7804 H   0  0  0  0  0  0  0  0  0  0  0  0
  -17.5363  -19.4685   19.3654 H   0  0  0  0  0  0  0  0  0  0  0  0
  -19.8221  -19.5683   21.0264 H   0  0  0  0  0  0  0  0  0  0  0  0
  -18.1935  -20.0839   21.4769 H   0  0  0  0  0  0  0  0  0  0  0  0
  -19.3955  -22.1270   21.7976 H   0  0  0  0  0  0  0  0  0  0  0  0
  -20.4627  -21.8029   20.4172 H   0  0  0  0  0  0  0  0  0  0  0  0
  -17.4960  -22.5061   20.3352 H   0  0  0  0  0  0  0  0  0  0  0  0
  -18.8122  -23.3598   19.5146 H   0  0  0  0  0  0  0  0  0  0  0  0
  1  2  1  0
  2  3  1  0
  3  4  1  0
  4  5  1  0
  5  6  1  0
  6  7  2  0
  6  8  1  0
  8  9  1  0
  9 10  1  0
 10 11  1  0
 11 12  1  0
 12 13  1  0
  2 14  1  0
 14 15  1  0
 15 16  1  0
 16 17  1  0
 17 18  2  0
 18 19  1  0
 19 20  1  0
 20 21  1  0
 21 22  1  0
 22 23  1  0
 23 24  1  0
 19 25  1  0
 13  9  1  0
 25 16  2  0
 24 20  1  0
  1 26  1  0
  1 27  1  0
  1 28  1  0
  2 29  1  0
  3 30  1  0
  3 31  1  0
  4 32  1  0
  4 33  1  0
  5 34  1  0
  8 35  1  0
  8 36  1  0
 10 37  1  0
 10 38  1  0
 11 39  1  0
 11 40  1  0
 12 41  1  0
 12 42  1  0
 13 43  1  0
 13 44  1  0
 14 45  1  0
 15 46  1  0
 15 47  1  0
 17 48  1  0
 18 49  1  0
 20 50  1  0
 21 51  1  0
 21 52  1  0
 22 53  1  0
 22 54  1  0
 23 55  1  0
 23 56  1  0
 24 57  1  0
 24 58  1  0
M  END
>  <Energy>  (224) 
73.74339849144269

>  <compound_id>  (224) 
8731

>  <target_id>  (224) 
1

>  <reference_id>  (224) 
123

>  <inspiration_ids>  (224) 
[123, 99]

>  <energy_score>  (224) 
-41.71900826861497

>  <distance_score>  (224) 
15.033650171254067

>  <path>  (224) 
/opt/xchem-fragalysis-2/maxwin/BulkDock/SCRATCH/511015/C8731-P123/C8731-P123.minimised.mol

>  <scratch_subdir>  (224) 
/opt/xchem-fragalysis-2/maxwin/BulkDock/SCRATCH/511015/C8731-P123

>  <fragmenstein_runtime>  (224) 
87.91121172904968

>  <fragmenstein_outcome>  (224) 
too moved

>  <fragmenstein_mode>  (224) 
expansion

>  <fragmenstein_error>  (224) 


$$$$
C8731-P99
     RDKit          3D

 58 60  0  0  0  0  0  0  0  0999 V2000
   -7.8685  -11.5731   17.2048 C   0  0  0  0  0  0  0  0  0  0  0  0
   -9.3736  -11.5283   16.8754 C   0  0  0  0  0  0  0  0  0  0  0  0
   -9.3157  -10.8804   14.9237 C   0  0  0  0  0  0  0  0  0  0  0  0
   -8.4027   -9.5729   13.6477 C   0  0  0  0  0  0  0  0  0  0  0  0
   -8.3982   -8.9547   11.7735 N   0  0  0  0  0  0  0  0  0  0  0  0
   -7.0407   -8.0299   10.7450 C   0  0  0  0  0  0  0  0  0  0  0  0
   -5.9002   -7.7372   11.1807 O   0  0  0  0  0  0  0  0  0  0  0  0
   -7.2300   -7.4024    9.0407 C   0  0  0  0  0  0  0  0  0  0  0  0
   -7.2866   -5.4360    8.6616 N   0  0  0  0  0  0  0  0  0  0  0  0
   -8.6229   -4.6162    8.5670 C   0  0  0  0  0  0  0  0  0  0  0  0
   -8.5104   -3.2478    7.9146 C   0  0  0  0  0  0  0  0  0  0  0  0
   -7.8921   -3.6635    6.6334 C   0  0  0  0  0  0  0  0  0  0  0  0
   -7.0164   -4.8398    7.0730 C   0  0  0  0  0  0  0  0  0  0  0  0
  -10.1434  -12.6335   18.3100 N   0  0  0  0  0  0  0  0  0  0  0  0
  -10.4771  -14.3561   19.3319 C   0  0  0  0  0  0  0  0  0  0  0  0
  -11.7693  -15.3767   20.8000 C   0  0  0  0  0  0  0  0  0  0  0  0
  -11.5496  -15.4841   22.6362 C   0  0  0  0  0  0  0  0  0  0  0  0
  -12.3179  -16.0061   23.6516 C   0  0  0  0  0  0  0  0  0  0  0  0
  -12.8524  -17.0325   23.0659 N   0  0  0  0  0  0  0  0  0  0  0  0
  -13.2292  -18.7668   23.9627 C   0  0  0  0  0  0  0  0  0  0  0  0
  -14.5693  -20.1796   24.3434 C   0  0  0  0  0  0  0  0  0  0  0  0
  -14.3237  -21.7127   23.9485 C   0  0  0  0  0  0  0  0  0  0  0  0
  -12.8645  -21.8737   23.6279 C   0  0  0  0  0  0  0  0  0  0  0  0
  -12.1410  -20.4850   23.8766 C   0  0  0  0  0  0  0  0  0  0  0  0
  -12.9790  -16.4240   21.3318 N   0  0  0  0  0  0  0  0  0  0  0  0
   -7.3793  -12.4008   16.6839 H   0  0  0  0  0  0  0  0  0  0  0  0
   -7.6853  -11.6919   18.2716 H   0  0  0  0  0  0  0  0  0  0  0  0
   -7.3859  -10.6414   16.8926 H   0  0  0  0  0  0  0  0  0  0  0  0
   -9.7756  -10.5997   17.3067 H   0  0  0  0  0  0  0  0  0  0  0  0
  -10.3721  -10.6278   14.7598 H   0  0  0  0  0  0  0  0  0  0  0  0
   -9.1074  -11.8278   14.4075 H   0  0  0  0  0  0  0  0  0  0  0  0
   -8.7021   -8.6558   14.1597 H   0  0  0  0  0  0  0  0  0  0  0  0
   -7.3359   -9.6908   13.8754 H   0  0  0  0  0  0  0  0  0  0  0  0
   -9.2516   -9.0005   11.2375 H   0  0  0  0  0  0  0  0  0  0  0  0
   -8.0120   -7.9543    8.4858 H   0  0  0  0  0  0  0  0  0  0  0  0
   -6.3832   -7.9859    8.6468 H   0  0  0  0  0  0  0  0  0  0  0  0
   -9.1683   -5.1897    7.8165 H   0  0  0  0  0  0  0  0  0  0  0  0
   -9.1977   -4.5467    9.4765 H   0  0  0  0  0  0  0  0  0  0  0  0
   -7.8975   -2.5262    8.4527 H   0  0  0  0  0  0  0  0  0  0  0  0
   -9.4887   -2.7898    7.7418 H   0  0  0  0  0  0  0  0  0  0  0  0
   -8.6561   -4.0006    5.9226 H   0  0  0  0  0  0  0  0  0  0  0  0
   -7.3262   -2.8559    6.1581 H   0  0  0  0  0  0  0  0  0  0  0  0
   -7.0863   -5.6203    6.3215 H   0  0  0  0  0  0  0  0  0  0  0  0
   -6.0583   -4.3193    7.0531 H   0  0  0  0  0  0  0  0  0  0  0  0
  -11.0108  -12.1392   18.5707 H   0  0  0  0  0  0  0  0  0  0  0  0
   -9.7440  -15.1836   19.0711 H   0  0  0  0  0  0  0  0  0  0  0  0
   -9.7341  -13.6829   19.8842 H   0  0  0  0  0  0  0  0  0  0  0  0
  -11.1042  -14.5193   22.7251 H   0  0  0  0  0  0  0  0  0  0  0  0
  -12.4959  -15.6701   24.6522 H   0  0  0  0  0  0  0  0  0  0  0  0
  -13.4719  -18.7740   23.0621 H   0  0  0  0  0  0  0  0  0  0  0  0
  -15.6522  -20.2187   24.1052 H   0  0  0  0  0  0  0  0  0  0  0  0
  -14.9373  -19.8432   25.3209 H   0  0  0  0  0  0  0  0  0  0  0  0
  -15.1034  -21.9956   23.2732 H   0  0  0  0  0  0  0  0  0  0  0  0
  -14.6210  -22.4964   24.6674 H   0  0  0  0  0  0  0  0  0  0  0  0
  -12.6854  -22.2279   22.6095 H   0  0  0  0  0  0  0  0  0  0  0  0
  -12.4103  -22.6399   24.2698 H   0  0  0  0  0  0  0  0  0  0  0  0
  -11.2995  -20.5354   23.1642 H   0  0  0  0  0  0  0  0  0  0  0  0
  -11.7091  -20.7143   24.8423 H   0  0  0  0  0  0  0  0  0  0  0  0
  1  2  1  0
  2  3  1  0
  3  4  1  0
  4  5  1  0
  5  6  1  0
  6  7  2  0
  6  8  1  0
  8  9  1  0
  9 10  1  0
 10 11  1  0
 11 12  1  0
 12 13  1  0
  2 14  1  0
 14 15  1  0
 15 16  1  0
 16 17  1  0
 17 18  2  0
 18 19  1  0
 19 20  1  0
 20 21  1  0
 21 22  1  0
 22 23  1  0
 23 24  1  0
 19 25  1  0
 13  9  1  0
 25 16  2  0
 24 20  1  0
  1 26  1  0
  1 27  1  0
  1 28  1  0
  2 29  1  0
  3 30  1  0
  3 31  1  0
  4 32  1  0
  4 33  1  0
  5 34  1  0
  8 35  1  0
  8 36  1  0
 10 37  1  0
 10 38  1  0
 11 39  1  0
 11 40  1  0
 12 41  1  0
 12 42  1  0
 13 43  1  0
 13 44  1  0
 14 45  1  0
 15 46  1  0
 15 47  1  0
 17 48  1  0
 18 49  1  0
 20 50  1  0
 21 51  1  0
 21 52  1  0
 22 53  1  0
 22 54  1  0
 23 55  1  0
 23 56  1  0
 24 57  1  0
 24 58  1  0
M  END
>  <Energy>  (225) 
1622.4794351739993

>  <compound_id>  (225) 
8731

>  <target_id>  (225) 
1

>  <reference_id>  (225) 
99

>  <inspiration_ids>  (225) 
[123, 99]

>  <energy_score>  (225) 
1507.0170284139604

>  <distance_score>  (225) 
9.763927542128073

>  <path>  (225) 
/opt/xchem-fragalysis-2/maxwin/BulkDock/SCRATCH/511015/C8731-P99/C8731-P99.minimised.mol

>  <scratch_subdir>  (225) 
/opt/xchem-fragalysis-2/maxwin/BulkDock/SCRATCH/511015/C8731-P99

>  <fragmenstein_runtime>  (225) 
50.70065784454346

>  <fragmenstein_outcome>  (225) 
too moved

>  <fragmenstein_mode>  (225) 
expansion

>  <fragmenstein_error>  (225) 


$$$$
C8739-P123
     RDKit          3D

 55 57  0  0  0  0  0  0  0  0999 V2000
   -9.3380  -15.5054   18.8523 C   0  0  0  0  0  0  0  0  0  0  0  0
  -10.6032  -14.8906   19.2244 N   0  0  0  0  0  0  0  0  0  0  0  0
   -9.8599  -13.3622   18.6648 C   0  0  0  0  0  0  0  0  0  0  0  0
   -9.1665  -13.1462   17.1868 C   0  0  0  0  0  0  0  0  0  0  0  0
   -8.6992  -11.7745   16.8960 N   0  0  0  0  0  0  0  0  0  0  0  0
   -7.6665  -11.2877   15.9770 C   0  0  0  0  0  0  0  0  0  0  0  0
   -6.8880  -11.8872   15.2900 O   0  0  0  0  0  0  0  0  0  0  0  0
   -7.7218   -9.7026   15.9120 C   0  0  0  0  0  0  0  0  0  0  0  0
   -6.5957   -9.0391   15.1839 N   0  0  0  0  0  0  0  0  0  0  0  0
   -6.6178   -7.5749   15.3052 C   0  0  0  0  0  0  0  0  0  0  0  0
   -5.7215   -7.0655   14.1765 C   0  0  0  0  0  0  0  0  0  0  0  0
   -5.6071   -8.2307   13.2037 C   0  0  0  0  0  0  0  0  0  0  0  0
   -6.5657   -9.2928   13.7388 C   0  0  0  0  0  0  0  0  0  0  0  0
  -11.7728  -15.3516   20.8469 C   0  0  0  0  0  0  0  0  0  0  0  0
  -11.6142  -15.9286   22.8126 C   0  0  0  0  0  0  0  0  0  0  0  0
  -12.7638  -16.0837   23.4182 C   0  0  0  0  0  0  0  0  0  0  0  0
  -12.4402  -16.7870   24.4764 C   0  0  0  0  0  0  0  0  0  0  0  0
  -10.8103  -17.1660   25.0993 N   0  0  0  0  0  0  0  0  0  0  0  0
  -10.3956  -17.3148   27.0511 C   0  0  0  0  0  0  0  0  0  0  0  0
  -11.6402  -17.9876   28.5645 C   0  0  0  0  0  0  0  0  0  0  0  0
  -12.0740  -19.9542   28.9335 C   0  0  0  0  0  0  0  0  0  0  0  0
  -10.2415  -20.2114   29.2348 C   0  0  0  0  0  0  0  0  0  0  0  0
   -9.3872  -18.5223   28.2342 C   0  0  0  0  0  0  0  0  0  0  0  0
  -10.5025  -16.8666   23.8352 N   0  0  0  0  0  0  0  0  0  0  0  0
   -9.3463  -15.9915   17.8638 H   0  0  0  0  0  0  0  0  0  0  0  0
   -8.5721  -14.8440   18.5163 H   0  0  0  0  0  0  0  0  0  0  0  0
   -8.8339  -15.8783   19.7102 H   0  0  0  0  0  0  0  0  0  0  0  0
  -10.5332  -12.5254   18.5824 H   0  0  0  0  0  0  0  0  0  0  0  0
   -9.0674  -13.1735   19.3871 H   0  0  0  0  0  0  0  0  0  0  0  0
   -8.3170  -13.7998   16.9818 H   0  0  0  0  0  0  0  0  0  0  0  0
   -9.8927  -13.3430   16.3960 H   0  0  0  0  0  0  0  0  0  0  0  0
   -9.2280  -10.9863   17.2476 H   0  0  0  0  0  0  0  0  0  0  0  0
   -7.7035   -9.3511   16.9513 H   0  0  0  0  0  0  0  0  0  0  0  0
   -8.6835   -9.4206   15.4661 H   0  0  0  0  0  0  0  0  0  0  0  0
   -6.2433   -7.2522   16.2821 H   0  0  0  0  0  0  0  0  0  0  0  0
   -7.6327   -7.1791   15.1886 H   0  0  0  0  0  0  0  0  0  0  0  0
   -4.7293   -6.7952   14.5554 H   0  0  0  0  0  0  0  0  0  0  0  0
   -6.1486   -6.1787   13.6988 H   0  0  0  0  0  0  0  0  0  0  0  0
   -5.8433   -7.9429   12.1759 H   0  0  0  0  0  0  0  0  0  0  0  0
   -4.5791   -8.6130   13.2112 H   0  0  0  0  0  0  0  0  0  0  0  0
   -6.1947  -10.2930   13.5008 H   0  0  0  0  0  0  0  0  0  0  0  0
   -7.5579   -9.1754   13.2914 H   0  0  0  0  0  0  0  0  0  0  0  0
  -12.4024  -16.0136   20.2314 H   0  0  0  0  0  0  0  0  0  0  0  0
  -12.8750  -15.2417   20.8904 H   0  0  0  0  0  0  0  0  0  0  0  0
  -13.6356  -16.1464   22.8267 H   0  0  0  0  0  0  0  0  0  0  0  0
  -13.1386  -17.5803   24.6183 H   0  0  0  0  0  0  0  0  0  0  0  0
  -10.1086  -16.2614   27.2144 H   0  0  0  0  0  0  0  0  0  0  0  0
  -11.1058  -17.4740   29.3644 H   0  0  0  0  0  0  0  0  0  0  0  0
  -12.6045  -17.5974   28.8636 H   0  0  0  0  0  0  0  0  0  0  0  0
  -12.4329  -20.5131   29.7797 H   0  0  0  0  0  0  0  0  0  0  0  0
  -12.2315  -20.7136   28.1414 H   0  0  0  0  0  0  0  0  0  0  0  0
  -10.1627  -21.1651   28.6217 H   0  0  0  0  0  0  0  0  0  0  0  0
  -10.2944  -20.5421   30.2925 H   0  0  0  0  0  0  0  0  0  0  0  0
   -8.3066  -18.6059   28.1006 H   0  0  0  0  0  0  0  0  0  0  0  0
   -9.4423  -17.5545   28.7884 H   0  0  0  0  0  0  0  0  0  0  0  0
  1  2  1  0
  2  3  1  0
  3  4  1  0
  4  5  1  0
  5  6  1  0
  6  7  2  0
  6  8  1  0
  8  9  1  0
  9 10  1  0
 10 11  1  0
 11 12  1  0
 12 13  1  0
  2 14  1  0
 14 15  1  0
 15 16  1  0
 16 17  2  0
 17 18  1  0
 18 19  1  0
 19 20  1  0
 20 21  1  0
 21 22  1  0
 22 23  1  0
 18 24  1  0
 13  9  1  0
 24 15  2  0
 23 19  1  0
  1 25  1  0
  1 26  1  0
  1 27  1  0
  3 28  1  0
  3 29  1  0
  4 30  1  0
  4 31  1  0
  5 32  1  0
  8 33  1  0
  8 34  1  0
 10 35  1  0
 10 36  1  0
 11 37  1  0
 11 38  1  0
 12 39  1  0
 12 40  1  0
 13 41  1  0
 13 42  1  0
 14 43  1  0
 14 44  1  0
 16 45  1  0
 17 46  1  0
 19 47  1  0
 20 48  1  0
 20 49  1  0
 21 50  1  0
 21 51  1  0
 22 52  1  0
 22 53  1  0
 23 54  1  0
 23 55  1  0
M  END
>  <Energy>  (226) 
1205.5126517021001

>  <compound_id>  (226) 
8739

>  <target_id>  (226) 
1

>  <reference_id>  (226) 
123

>  <inspiration_ids>  (226) 
[123, 99]

>  <energy_score>  (226) 
1071.7998292738594

>  <distance_score>  (226) 
12.100983517004616

>  <path>  (226) 
/opt/xchem-fragalysis-2/maxwin/BulkDock/SCRATCH/511015/C8739-P123/C8739-P123.minimised.mol

>  <scratch_subdir>  (226) 
/opt/xchem-fragalysis-2/maxwin/BulkDock/SCRATCH/511015/C8739-P123

>  <fragmenstein_runtime>  (226) 
38.561930656433105

>  <fragmenstein_outcome>  (226) 
too moved

>  <fragmenstein_mode>  (226) 
expansion

>  <fragmenstein_error>  (226) 


$$$$
C8739-P99
     RDKit          3D

 55 57  0  0  0  0  0  0  0  0999 V2000
  -13.1493  -16.4797   23.9198 C   0  0  0  0  0  0  0  0  0  0  0  0
  -12.2249  -15.4971   24.4279 N   0  0  0  0  0  0  0  0  0  0  0  0
  -11.2919  -14.9452   22.7986 C   0  0  0  0  0  0  0  0  0  0  0  0
  -10.7826  -13.3903   21.5119 C   0  0  0  0  0  0  0  0  0  0  0  0
   -9.4859  -13.3647   20.0296 N   0  0  0  0  0  0  0  0  0  0  0  0
   -9.5056  -12.5455   18.5562 C   0  0  0  0  0  0  0  0  0  0  0  0
  -10.3642  -11.8232   18.0672 O   0  0  0  0  0  0  0  0  0  0  0  0
   -8.1703  -12.6751   17.7849 C   0  0  0  0  0  0  0  0  0  0  0  0
   -7.8035  -11.6126   16.7729 N   0  0  0  0  0  0  0  0  0  0  0  0
   -7.7266  -10.2291   17.2376 C   0  0  0  0  0  0  0  0  0  0  0  0
   -7.4885   -9.4260   15.9532 C   0  0  0  0  0  0  0  0  0  0  0  0
   -8.0089  -10.3151   14.8278 C   0  0  0  0  0  0  0  0  0  0  0  0
   -8.5706  -11.5564   15.5304 C   0  0  0  0  0  0  0  0  0  0  0  0
  -11.6044  -15.2388   26.2701 C   0  0  0  0  0  0  0  0  0  0  0  0
  -11.5441  -15.9884   28.1115 C   0  0  0  0  0  0  0  0  0  0  0  0
  -10.4513  -16.6735   28.5809 C   0  0  0  0  0  0  0  0  0  0  0  0
  -11.0395  -17.8359   28.9793 C   0  0  0  0  0  0  0  0  0  0  0  0
  -12.4206  -18.1601   29.0797 N   0  0  0  0  0  0  0  0  0  0  0  0
  -13.3780  -19.7867   29.4336 C   0  0  0  0  0  0  0  0  0  0  0  0
  -12.9544  -21.4195   29.9932 C   0  0  0  0  0  0  0  0  0  0  0  0
  -14.5668  -22.0671   30.7225 C   0  0  0  0  0  0  0  0  0  0  0  0
  -15.8477  -21.3891   30.5366 C   0  0  0  0  0  0  0  0  0  0  0  0
  -15.2914  -20.0858   30.1323 C   0  0  0  0  0  0  0  0  0  0  0  0
  -12.7837  -16.6870   28.8745 N   0  0  0  0  0  0  0  0  0  0  0  0
  -14.1370  -16.3308   24.3782 H   0  0  0  0  0  0  0  0  0  0  0  0
  -12.8605  -17.4994   24.0395 H   0  0  0  0  0  0  0  0  0  0  0  0
  -13.3046  -16.4260   22.8404 H   0  0  0  0  0  0  0  0  0  0  0  0
  -11.7674  -14.0730   23.0749 H   0  0  0  0  0  0  0  0  0  0  0  0
  -11.7285  -15.7544   22.1955 H   0  0  0  0  0  0  0  0  0  0  0  0
  -10.8397  -12.4166   22.0318 H   0  0  0  0  0  0  0  0  0  0  0  0
  -11.5863  -13.5042   20.9070 H   0  0  0  0  0  0  0  0  0  0  0  0
   -8.6653  -13.9360   20.0886 H   0  0  0  0  0  0  0  0  0  0  0  0
   -7.3701  -12.6556   18.5248 H   0  0  0  0  0  0  0  0  0  0  0  0
   -8.2020  -13.6370   17.2655 H   0  0  0  0  0  0  0  0  0  0  0  0
   -6.9110  -10.0822   17.9524 H   0  0  0  0  0  0  0  0  0  0  0  0
   -8.6617   -9.9029   17.7062 H   0  0  0  0  0  0  0  0  0  0  0  0
   -8.0108   -8.4644   15.9838 H   0  0  0  0  0  0  0  0  0  0  0  0
   -6.4201   -9.2282   15.8094 H   0  0  0  0  0  0  0  0  0  0  0  0
   -7.1843  -10.5901   14.1596 H   0  0  0  0  0  0  0  0  0  0  0  0
   -8.7751   -9.8120   14.2300 H   0  0  0  0  0  0  0  0  0  0  0  0
   -9.6424  -11.4249   15.7123 H   0  0  0  0  0  0  0  0  0  0  0  0
   -8.4286  -12.4531   14.9194 H   0  0  0  0  0  0  0  0  0  0  0  0
  -11.6856  -14.1521   26.4536 H   0  0  0  0  0  0  0  0  0  0  0  0
  -10.5820  -15.6719   26.2165 H   0  0  0  0  0  0  0  0  0  0  0  0
   -9.4063  -16.5440   28.3398 H   0  0  0  0  0  0  0  0  0  0  0  0
  -10.5706  -18.6877   29.1859 H   0  0  0  0  0  0  0  0  0  0  0  0
  -12.7514  -20.2364   28.6705 H   0  0  0  0  0  0  0  0  0  0  0  0
  -12.5956  -22.0258   29.1598 H   0  0  0  0  0  0  0  0  0  0  0  0
  -12.1181  -21.4266   30.6994 H   0  0  0  0  0  0  0  0  0  0  0  0
  -14.5052  -21.9214   31.8131 H   0  0  0  0  0  0  0  0  0  0  0  0
  -14.7464  -23.1241   30.4866 H   0  0  0  0  0  0  0  0  0  0  0  0
  -16.4075  -21.3363   31.4859 H   0  0  0  0  0  0  0  0  0  0  0  0
  -16.5878  -21.8339   29.8977 H   0  0  0  0  0  0  0  0  0  0  0  0
  -16.0549  -19.4404   29.6381 H   0  0  0  0  0  0  0  0  0  0  0  0
  -15.3782  -19.7571   31.1824 H   0  0  0  0  0  0  0  0  0  0  0  0
  1  2  1  0
  2  3  1  0
  3  4  1  0
  4  5  1  0
  5  6  1  0
  6  7  2  0
  6  8  1  0
  8  9  1  0
  9 10  1  0
 10 11  1  0
 11 12  1  0
 12 13  1  0
  2 14  1  0
 14 15  1  0
 15 16  1  0
 16 17  2  0
 17 18  1  0
 18 19  1  0
 19 20  1  0
 20 21  1  0
 21 22  1  0
 22 23  1  0
 18 24  1  0
 13  9  1  0
 24 15  2  0
 23 19  1  0
  1 25  1  0
  1 26  1  0
  1 27  1  0
  3 28  1  0
  3 29  1  0
  4 30  1  0
  4 31  1  0
  5 32  1  0
  8 33  1  0
  8 34  1  0
 10 35  1  0
 10 36  1  0
 11 37  1  0
 11 38  1  0
 12 39  1  0
 12 40  1  0
 13 41  1  0
 13 42  1  0
 14 43  1  0
 14 44  1  0
 16 45  1  0
 17 46  1  0
 19 47  1  0
 20 48  1  0
 20 49  1  0
 21 50  1  0
 21 51  1  0
 22 52  1  0
 22 53  1  0
 23 54  1  0
 23 55  1  0
M  END
>  <Energy>  (227) 
957.82693866667023

>  <compound_id>  (227) 
8739

>  <target_id>  (227) 
1

>  <reference_id>  (227) 
99

>  <inspiration_ids>  (227) 
[123, 99]

>  <energy_score>  (227) 
824.1141162384172

>  <distance_score>  (227) 
13.89026465697184

>  <path>  (227) 
/opt/xchem-fragalysis-2/maxwin/BulkDock/SCRATCH/511015/C8739-P99/C8739-P99.minimised.mol

>  <scratch_subdir>  (227) 
/opt/xchem-fragalysis-2/maxwin/BulkDock/SCRATCH/511015/C8739-P99

>  <fragmenstein_runtime>  (227) 
43.1282434463501

>  <fragmenstein_outcome>  (227) 
too moved

>  <fragmenstein_mode>  (227) 
expansion

>  <fragmenstein_error>  (227) 


$$$$
C8740-P123
     RDKit          3D

 58 60  0  0  0  0  0  0  0  0999 V2000
   -7.0582  -12.2279   18.4303 C   0  0  0  0  0  0  0  0  0  0  0  0
   -7.9644  -13.1089   17.6983 C   0  0  0  0  0  0  0  0  0  0  0  0
   -7.4114  -14.1259   16.3821 C   0  0  0  0  0  0  0  0  0  0  0  0
   -8.6731  -13.8417   14.7478 C   0  0  0  0  0  0  0  0  0  0  0  0
   -9.3876  -12.5052   14.4652 N   0  0  0  0  0  0  0  0  0  0  0  0
  -10.1176  -12.0541   13.3180 C   0  0  0  0  0  0  0  0  0  0  0  0
  -10.4288  -12.6299   12.3118 O   0  0  0  0  0  0  0  0  0  0  0  0
  -10.6345  -10.5851   13.4660 C   0  0  0  0  0  0  0  0  0  0  0  0
   -9.9874   -9.7308   14.4702 N   0  0  0  0  0  0  0  0  0  0  0  0
  -10.8698   -8.7328   15.1000 C   0  0  0  0  0  0  0  0  0  0  0  0
   -9.9908   -7.5340   15.4849 C   0  0  0  0  0  0  0  0  0  0  0  0
   -8.5542   -7.9273   15.1607 C   0  0  0  0  0  0  0  0  0  0  0  0
   -8.6598   -9.1627   14.2272 C   0  0  0  0  0  0  0  0  0  0  0  0
   -7.1889  -15.8563   16.6450 N   0  0  0  0  0  0  0  0  0  0  0  0
   -7.6822  -17.0189   17.9015 C   0  0  0  0  0  0  0  0  0  0  0  0
   -6.7419  -18.0860   19.2403 C   0  0  0  0  0  0  0  0  0  0  0  0
   -6.3206  -17.4800   20.4386 C   0  0  0  0  0  0  0  0  0  0  0  0
   -6.4074  -18.1446   21.6245 C   0  0  0  0  0  0  0  0  0  0  0  0
   -7.0583  -19.2762   21.4010 N   0  0  0  0  0  0  0  0  0  0  0  0
   -7.6246  -20.0536   22.7891 C   0  0  0  0  0  0  0  0  0  0  0  0
   -8.9613  -20.9598   23.0801 C   0  0  0  0  0  0  0  0  0  0  0  0
   -8.6493  -22.1000   24.0507 C   0  0  0  0  0  0  0  0  0  0  0  0
   -7.4016  -21.6842   24.7626 C   0  0  0  0  0  0  0  0  0  0  0  0
   -6.6288  -20.8090   23.7699 C   0  0  0  0  0  0  0  0  0  0  0  0
   -7.1545  -19.3438   19.8654 N   0  0  0  0  0  0  0  0  0  0  0  0
   -7.8055  -11.5015   18.7012 H   0  0  0  0  0  0  0  0  0  0  0  0
   -6.1842  -11.8696   17.8974 H   0  0  0  0  0  0  0  0  0  0  0  0
   -6.7062  -12.5773   19.3879 H   0  0  0  0  0  0  0  0  0  0  0  0
   -8.3376  -13.6799   18.5597 H   0  0  0  0  0  0  0  0  0  0  0  0
   -8.7673  -12.4656   17.4029 H   0  0  0  0  0  0  0  0  0  0  0  0
   -6.3910  -13.9936   16.4679 H   0  0  0  0  0  0  0  0  0  0  0  0
   -9.3395  -14.6480   14.4601 H   0  0  0  0  0  0  0  0  0  0  0  0
   -8.1542  -13.6756   13.8049 H   0  0  0  0  0  0  0  0  0  0  0  0
   -9.2405  -11.7242   15.0872 H   0  0  0  0  0  0  0  0  0  0  0  0
  -10.5936  -10.1139   12.4805 H   0  0  0  0  0  0  0  0  0  0  0  0
  -11.6948  -10.7040   13.7266 H   0  0  0  0  0  0  0  0  0  0  0  0
  -11.3271   -9.1569   16.0019 H   0  0  0  0  0  0  0  0  0  0  0  0
  -11.7422   -8.4446   14.5044 H   0  0  0  0  0  0  0  0  0  0  0  0
  -10.2588   -6.6525   14.9102 H   0  0  0  0  0  0  0  0  0  0  0  0
  -10.1049   -7.2692   16.5419 H   0  0  0  0  0  0  0  0  0  0  0  0
   -7.9553   -8.1608   16.0507 H   0  0  0  0  0  0  0  0  0  0  0  0
   -8.0285   -7.0391   14.8473 H   0  0  0  0  0  0  0  0  0  0  0  0
   -8.4682   -8.9916   13.1739 H   0  0  0  0  0  0  0  0  0  0  0  0
   -7.8870   -9.8689   14.5161 H   0  0  0  0  0  0  0  0  0  0  0  0
   -7.7875  -16.1870   15.8894 H   0  0  0  0  0  0  0  0  0  0  0  0
   -8.3133  -16.2931   18.4207 H   0  0  0  0  0  0  0  0  0  0  0  0
   -8.2379  -17.7172   17.3035 H   0  0  0  0  0  0  0  0  0  0  0  0
   -6.4180  -16.4607   20.5361 H   0  0  0  0  0  0  0  0  0  0  0  0
   -6.2441  -17.8705   22.6476 H   0  0  0  0  0  0  0  0  0  0  0  0
   -7.8977  -19.1404   23.2044 H   0  0  0  0  0  0  0  0  0  0  0  0
   -9.4641  -21.3809   22.2054 H   0  0  0  0  0  0  0  0  0  0  0  0
   -9.6888  -20.3416   23.6253 H   0  0  0  0  0  0  0  0  0  0  0  0
   -8.4946  -23.0544   23.5419 H   0  0  0  0  0  0  0  0  0  0  0  0
   -9.4771  -22.2645   24.7497 H   0  0  0  0  0  0  0  0  0  0  0  0
   -7.6597  -21.1453   25.6789 H   0  0  0  0  0  0  0  0  0  0  0  0
   -6.8055  -22.5480   25.0767 H   0  0  0  0  0  0  0  0  0  0  0  0
   -6.0476  -20.1240   24.3825 H   0  0  0  0  0  0  0  0  0  0  0  0
   -5.9428  -21.4790   23.2508 H   0  0  0  0  0  0  0  0  0  0  0  0
  1  2  1  0
  2  3  1  0
  3  4  1  0
  4  5  1  0
  5  6  1  0
  6  7  2  0
  6  8  1  0
  8  9  1  0
  9 10  1  0
 10 11  1  0
 11 12  1  0
 12 13  1  0
  3 14  1  0
 14 15  1  0
 15 16  1  0
 16 17  1  0
 17 18  2  0
 18 19  1  0
 19 20  1  0
 20 21  1  0
 21 22  1  0
 22 23  1  0
 23 24  1  0
 19 25  1  0
 13  9  1  0
 25 16  2  0
 24 20  1  0
  1 26  1  0
  1 27  1  0
  1 28  1  0
  2 29  1  0
  2 30  1  0
  3 31  1  0
  4 32  1  0
  4 33  1  0
  5 34  1  0
  8 35  1  0
  8 36  1  0
 10 37  1  0
 10 38  1  0
 11 39  1  0
 11 40  1  0
 12 41  1  0
 12 42  1  0
 13 43  1  0
 13 44  1  0
 14 45  1  0
 15 46  1  0
 15 47  1  0
 17 48  1  0
 18 49  1  0
 20 50  1  0
 21 51  1  0
 21 52  1  0
 22 53  1  0
 22 54  1  0
 23 55  1  0
 23 56  1  0
 24 57  1  0
 24 58  1  0
M  END
>  <Energy>  (228) 
494.62179617796738

>  <compound_id>  (228) 
8740

>  <target_id>  (228) 
1

>  <reference_id>  (228) 
123

>  <inspiration_ids>  (228) 
[123, 99]

>  <energy_score>  (228) 
363.3868523187225

>  <distance_score>  (228) 
12.930349632893442

>  <path>  (228) 
/opt/xchem-fragalysis-2/maxwin/BulkDock/SCRATCH/511015/C8740-P123/C8740-P123.minimised.mol

>  <scratch_subdir>  (228) 
/opt/xchem-fragalysis-2/maxwin/BulkDock/SCRATCH/511015/C8740-P123

>  <fragmenstein_runtime>  (228) 
62.39309358596802

>  <fragmenstein_outcome>  (228) 
too moved

>  <fragmenstein_mode>  (228) 
expansion

>  <fragmenstein_error>  (228) 


$$$$
C8740-P99
     RDKit          3D

 58 60  0  0  0  0  0  0  0  0999 V2000
  -10.8953  -18.2940    8.9233 C   0  0  0  0  0  0  0  0  0  0  0  0
  -11.0825  -18.0208   10.4090 C   0  0  0  0  0  0  0  0  0  0  0  0
   -9.9005  -18.4597   11.3079 C   0  0  0  0  0  0  0  0  0  0  0  0
   -8.6406  -17.5922   11.0225 C   0  0  0  0  0  0  0  0  0  0  0  0
   -8.7174  -16.2368   11.5615 N   0  0  0  0  0  0  0  0  0  0  0  0
   -9.3039  -15.0285   11.0154 C   0  0  0  0  0  0  0  0  0  0  0  0
   -9.9448  -14.8530   10.0170 O   0  0  0  0  0  0  0  0  0  0  0  0
   -8.8999  -13.7863   11.8839 C   0  0  0  0  0  0  0  0  0  0  0  0
  -10.0310  -12.9960   12.4145 N   0  0  0  0  0  0  0  0  0  0  0  0
  -10.9690  -12.4690   11.4155 C   0  0  0  0  0  0  0  0  0  0  0  0
  -11.4101  -11.0877   11.8984 C   0  0  0  0  0  0  0  0  0  0  0  0
  -10.7432  -10.9100   13.2458 C   0  0  0  0  0  0  0  0  0  0  0  0
   -9.5714  -11.8661   13.2273 C   0  0  0  0  0  0  0  0  0  0  0  0
   -9.6051  -19.9682   11.2566 N   0  0  0  0  0  0  0  0  0  0  0  0
  -10.5124  -20.7676   12.1473 C   0  0  0  0  0  0  0  0  0  0  0  0
  -10.0920  -22.2163   12.6297 C   0  0  0  0  0  0  0  0  0  0  0  0
   -9.0758  -22.6938   13.5246 C   0  0  0  0  0  0  0  0  0  0  0  0
   -9.3643  -24.0100   13.8088 C   0  0  0  0  0  0  0  0  0  0  0  0
  -10.4431  -24.3118   13.0418 N   0  0  0  0  0  0  0  0  0  0  0  0
  -11.0092  -25.6205   12.7386 C   0  0  0  0  0  0  0  0  0  0  0  0
  -12.0741  -26.0781   13.7323 C   0  0  0  0  0  0  0  0  0  0  0  0
  -11.2845  -26.7735   14.8319 C   0  0  0  0  0  0  0  0  0  0  0  0
  -10.1070  -27.4344   14.1218 C   0  0  0  0  0  0  0  0  0  0  0  0
  -10.0019  -26.7778   12.7430 C   0  0  0  0  0  0  0  0  0  0  0  0
  -10.9426  -23.2371   12.3895 N   0  0  0  0  0  0  0  0  0  0  0  0
  -10.6774  -19.3493    8.7337 H   0  0  0  0  0  0  0  0  0  0  0  0
  -10.0890  -17.6906    8.4980 H   0  0  0  0  0  0  0  0  0  0  0  0
  -11.8126  -18.0411    8.3813 H   0  0  0  0  0  0  0  0  0  0  0  0
  -11.9809  -18.5587   10.7384 H   0  0  0  0  0  0  0  0  0  0  0  0
  -11.3074  -16.9614   10.5619 H   0  0  0  0  0  0  0  0  0  0  0  0
  -10.1952  -18.2263   12.3382 H   0  0  0  0  0  0  0  0  0  0  0  0
   -8.4358  -17.5189    9.9509 H   0  0  0  0  0  0  0  0  0  0  0  0
   -7.7585  -18.0412   11.4887 H   0  0  0  0  0  0  0  0  0  0  0  0
   -8.1730  -15.9988   12.3806 H   0  0  0  0  0  0  0  0  0  0  0  0
   -8.2424  -13.1745   11.2568 H   0  0  0  0  0  0  0  0  0  0  0  0
   -8.2938  -14.1132   12.7356 H   0  0  0  0  0  0  0  0  0  0  0  0
  -11.8365  -13.1365   11.3591 H   0  0  0  0  0  0  0  0  0  0  0  0
  -10.5611  -12.4034   10.4057 H   0  0  0  0  0  0  0  0  0  0  0  0
  -12.4995  -11.0191   11.9878 H   0  0  0  0  0  0  0  0  0  0  0  0
  -11.0956  -10.3164   11.1932 H   0  0  0  0  0  0  0  0  0  0  0  0
  -10.4314   -9.8862   13.4446 H   0  0  0  0  0  0  0  0  0  0  0  0
  -11.4453  -11.1996   14.0381 H   0  0  0  0  0  0  0  0  0  0  0  0
   -8.6757  -11.3816   12.8286 H   0  0  0  0  0  0  0  0  0  0  0  0
   -9.3441  -12.1949   14.2435 H   0  0  0  0  0  0  0  0  0  0  0  0
   -8.6496  -20.1316   11.5623 H   0  0  0  0  0  0  0  0  0  0  0  0
  -10.6921  -20.1963   13.0597 H   0  0  0  0  0  0  0  0  0  0  0  0
  -11.4771  -20.8589   11.6330 H   0  0  0  0  0  0  0  0  0  0  0  0
   -8.2359  -22.1951   13.9689 H   0  0  0  0  0  0  0  0  0  0  0  0
   -8.8614  -24.7328   14.4341 H   0  0  0  0  0  0  0  0  0  0  0  0
  -11.4448  -25.5290   11.7351 H   0  0  0  0  0  0  0  0  0  0  0  0
  -12.7349  -26.8088   13.2489 H   0  0  0  0  0  0  0  0  0  0  0  0
  -12.7018  -25.2683   14.1129 H   0  0  0  0  0  0  0  0  0  0  0  0
  -11.8942  -27.4995   15.3784 H   0  0  0  0  0  0  0  0  0  0  0  0
  -10.9147  -26.0430   15.5597 H   0  0  0  0  0  0  0  0  0  0  0  0
   -9.1848  -27.3051   14.6981 H   0  0  0  0  0  0  0  0  0  0  0  0
  -10.2730  -28.5121   14.0136 H   0  0  0  0  0  0  0  0  0  0  0  0
   -8.9766  -26.4735   12.5093 H   0  0  0  0  0  0  0  0  0  0  0  0
  -10.2955  -27.5144   11.9842 H   0  0  0  0  0  0  0  0  0  0  0  0
  1  2  1  0
  2  3  1  0
  3  4  1  0
  4  5  1  0
  5  6  1  0
  6  7  2  0
  6  8  1  0
  8  9  1  0
  9 10  1  0
 10 11  1  0
 11 12  1  0
 12 13  1  0
  3 14  1  0
 14 15  1  0
 15 16  1  0
 16 17  1  0
 17 18  2  0
 18 19  1  0
 19 20  1  0
 20 21  1  0
 21 22  1  0
 22 23  1  0
 23 24  1  0
 19 25  1  0
 13  9  1  0
 25 16  2  0
 24 20  1  0
  1 26  1  0
  1 27  1  0
  1 28  1  0
  2 29  1  0
  2 30  1  0
  3 31  1  0
  4 32  1  0
  4 33  1  0
  5 34  1  0
  8 35  1  0
  8 36  1  0
 10 37  1  0
 10 38  1  0
 11 39  1  0
 11 40  1  0
 12 41  1  0
 12 42  1  0
 13 43  1  0
 13 44  1  0
 14 45  1  0
 15 46  1  0
 15 47  1  0
 17 48  1  0
 18 49  1  0
 20 50  1  0
 21 51  1  0
 21 52  1  0
 22 53  1  0
 22 54  1  0
 23 55  1  0
 23 56  1  0
 24 57  1  0
 24 58  1  0
M  END
>  <Energy>  (229) 
104.21206572441454

>  <compound_id>  (229) 
8740

>  <target_id>  (229) 
1

>  <reference_id>  (229) 
99

>  <inspiration_ids>  (229) 
[123, 99]

>  <energy_score>  (229) 
-27.02287813482019

>  <distance_score>  (229) 
15.830946656974039

>  <path>  (229) 
/opt/xchem-fragalysis-2/maxwin/BulkDock/SCRATCH/511015/C8740-P99/C8740-P99.minimised.mol

>  <scratch_subdir>  (229) 
/opt/xchem-fragalysis-2/maxwin/BulkDock/SCRATCH/511015/C8740-P99

>  <fragmenstein_runtime>  (229) 
86.76087951660156

>  <fragmenstein_outcome>  (229) 
too moved

>  <fragmenstein_mode>  (229) 
expansion

>  <fragmenstein_error>  (229) 


$$$$
C8743-P123
     RDKit          3D

 58 60  0  0  0  0  0  0  0  0999 V2000
  -13.1460  -12.9368   11.8661 C   0  0  0  0  0  0  0  0  0  0  0  0
  -12.9351  -11.8159   12.7971 N   0  0  0  0  0  0  0  0  0  0  0  0
  -11.8486  -10.9039   12.2758 C   0  0  0  0  0  0  0  0  0  0  0  0
  -12.1909  -10.1475   10.9199 C   0  0  0  0  0  0  0  0  0  0  0  0
  -10.9606   -9.5519   10.0733 N   0  0  0  0  0  0  0  0  0  0  0  0
  -10.9121  -11.0042    9.5877 C   0  0  0  0  0  0  0  0  0  0  0  0
   -9.3924   -9.0072   10.5827 C   0  0  0  0  0  0  0  0  0  0  0  0
   -8.9620   -9.1005   11.7333 O   0  0  0  0  0  0  0  0  0  0  0  0
   -7.9774   -8.2936    9.2805 C   0  0  0  0  0  0  0  0  0  0  0  0
   -7.7479   -7.1431    8.0208 N   0  0  0  0  0  0  0  0  0  0  0  0
   -7.2607   -5.3786    8.6755 C   0  0  0  0  0  0  0  0  0  0  0  0
   -7.1242   -4.3016    7.5396 C   0  0  0  0  0  0  0  0  0  0  0  0
   -7.8773   -4.8983    6.4248 C   0  0  0  0  0  0  0  0  0  0  0  0
   -8.8215   -5.8365    7.1802 C   0  0  0  0  0  0  0  0  0  0  0  0
  -12.5550  -12.3952   14.1491 C   0  0  0  0  0  0  0  0  0  0  0  0
  -13.5824  -13.3579   14.8200 C   0  0  0  0  0  0  0  0  0  0  0  0
  -14.6631  -13.0305   15.6922 C   0  0  0  0  0  0  0  0  0  0  0  0
  -15.2455  -14.2280   16.0545 C   0  0  0  0  0  0  0  0  0  0  0  0
  -14.5455  -15.1939   15.3881 N   0  0  0  0  0  0  0  0  0  0  0  0
  -14.8919  -16.6011   15.3317 C   0  0  0  0  0  0  0  0  0  0  0  0
  -16.0824  -16.8800   14.3999 C   0  0  0  0  0  0  0  0  0  0  0  0
  -15.8129  -18.2393   13.7524 C   0  0  0  0  0  0  0  0  0  0  0  0
  -14.5929  -18.8022   14.4658 C   0  0  0  0  0  0  0  0  0  0  0  0
  -13.8014  -17.5619   14.8466 C   0  0  0  0  0  0  0  0  0  0  0  0
  -13.4898  -14.6987   14.6984 N   0  0  0  0  0  0  0  0  0  0  0  0
  -13.9785  -13.5693   12.1904 H   0  0  0  0  0  0  0  0  0  0  0  0
  -13.4336  -12.5872   10.8712 H   0  0  0  0  0  0  0  0  0  0  0  0
  -12.2502  -13.5598   11.7623 H   0  0  0  0  0  0  0  0  0  0  0  0
  -11.6737  -10.1276   13.0320 H   0  0  0  0  0  0  0  0  0  0  0  0
  -10.9124  -11.4669   12.2146 H   0  0  0  0  0  0  0  0  0  0  0  0
  -12.7772   -9.2981   11.2755 H   0  0  0  0  0  0  0  0  0  0  0  0
  -12.9762  -10.6083   10.3028 H   0  0  0  0  0  0  0  0  0  0  0  0
  -10.3144  -11.0189    8.6773 H   0  0  0  0  0  0  0  0  0  0  0  0
  -11.8495  -11.3826    9.1480 H   0  0  0  0  0  0  0  0  0  0  0  0
  -10.5565  -11.7597   10.2944 H   0  0  0  0  0  0  0  0  0  0  0  0
   -7.6304   -9.0030    8.5718 H   0  0  0  0  0  0  0  0  0  0  0  0
   -7.0726   -8.1144    9.8906 H   0  0  0  0  0  0  0  0  0  0  0  0
   -6.5178   -5.6113    9.4109 H   0  0  0  0  0  0  0  0  0  0  0  0
   -8.0449   -4.9021    9.2690 H   0  0  0  0  0  0  0  0  0  0  0  0
   -7.6348   -3.3737    7.8369 H   0  0  0  0  0  0  0  0  0  0  0  0
   -6.1200   -4.0100    7.2278 H   0  0  0  0  0  0  0  0  0  0  0  0
   -7.1564   -5.3968    5.7846 H   0  0  0  0  0  0  0  0  0  0  0  0
   -8.4193   -4.1444    5.8461 H   0  0  0  0  0  0  0  0  0  0  0  0
   -9.5930   -6.2565    6.5274 H   0  0  0  0  0  0  0  0  0  0  0  0
   -9.2716   -5.1827    7.9145 H   0  0  0  0  0  0  0  0  0  0  0  0
  -12.4087  -11.5589   14.8446 H   0  0  0  0  0  0  0  0  0  0  0  0
  -11.5949  -12.9230   14.0715 H   0  0  0  0  0  0  0  0  0  0  0  0
  -14.9688  -12.0412   16.0028 H   0  0  0  0  0  0  0  0  0  0  0  0
  -16.0994  -14.4585   16.6755 H   0  0  0  0  0  0  0  0  0  0  0  0
  -15.1692  -16.8849   16.3566 H   0  0  0  0  0  0  0  0  0  0  0  0
  -17.0170  -16.8979   14.9722 H   0  0  0  0  0  0  0  0  0  0  0  0
  -16.1957  -16.1127   13.6244 H   0  0  0  0  0  0  0  0  0  0  0  0
  -16.6752  -18.9092   13.8254 H   0  0  0  0  0  0  0  0  0  0  0  0
  -15.5916  -18.1001   12.6875 H   0  0  0  0  0  0  0  0  0  0  0  0
  -14.0201  -19.4855   13.8323 H   0  0  0  0  0  0  0  0  0  0  0  0
  -14.9005  -19.3470   15.3663 H   0  0  0  0  0  0  0  0  0  0  0  0
  -13.2751  -17.1751   13.9659 H   0  0  0  0  0  0  0  0  0  0  0  0
  -13.0573  -17.7745   15.6198 H   0  0  0  0  0  0  0  0  0  0  0  0
  1  2  1  0
  2  3  1  0
  3  4  1  0
  4  5  1  0
  5  6  1  0
  5  7  1  0
  7  8  2  0
  7  9  1  0
  9 10  1  0
 10 11  1  0
 11 12  1  0
 12 13  1  0
 13 14  1  0
  2 15  1  0
 15 16  1  0
 16 17  1  0
 17 18  2  0
 18 19  1  0
 19 20  1  0
 20 21  1  0
 21 22  1  0
 22 23  1  0
 23 24  1  0
 19 25  1  0
 14 10  1  0
 25 16  2  0
 24 20  1  0
  1 26  1  0
  1 27  1  0
  1 28  1  0
  3 29  1  0
  3 30  1  0
  4 31  1  0
  4 32  1  0
  6 33  1  0
  6 34  1  0
  6 35  1  0
  9 36  1  0
  9 37  1  0
 11 38  1  0
 11 39  1  0
 12 40  1  0
 12 41  1  0
 13 42  1  0
 13 43  1  0
 14 44  1  0
 14 45  1  0
 15 46  1  0
 15 47  1  0
 17 48  1  0
 18 49  1  0
 20 50  1  0
 21 51  1  0
 21 52  1  0
 22 53  1  0
 22 54  1  0
 23 55  1  0
 23 56  1  0
 24 57  1  0
 24 58  1  0
M  END
>  <Energy>  (230) 
494.07528824060091

>  <compound_id>  (230) 
8743

>  <target_id>  (230) 
1

>  <reference_id>  (230) 
123

>  <inspiration_ids>  (230) 
[123, 99]

>  <energy_score>  (230) 
340.9574035617993

>  <distance_score>  (230) 
13.175377399125002

>  <path>  (230) 
/opt/xchem-fragalysis-2/maxwin/BulkDock/SCRATCH/511015/C8743-P123/C8743-P123.minimised.mol

>  <scratch_subdir>  (230) 
/opt/xchem-fragalysis-2/maxwin/BulkDock/SCRATCH/511015/C8743-P123

>  <fragmenstein_runtime>  (230) 
32.6850004196167

>  <fragmenstein_outcome>  (230) 
too moved

>  <fragmenstein_mode>  (230) 
expansion

>  <fragmenstein_error>  (230) 


$$$$
C8743-P99
     RDKit          3D

 58 60  0  0  0  0  0  0  0  0999 V2000
  -15.6404   -9.3085   20.4957 C   0  0  0  0  0  0  0  0  0  0  0  0
  -15.7399  -10.4796   19.6314 N   0  0  0  0  0  0  0  0  0  0  0  0
  -15.4823  -10.1991   18.1833 C   0  0  0  0  0  0  0  0  0  0  0  0
  -15.4100   -8.7338   17.6233 C   0  0  0  0  0  0  0  0  0  0  0  0
  -14.0458   -8.0766   17.8842 N   0  0  0  0  0  0  0  0  0  0  0  0
  -14.7097   -6.9238   17.1777 C   0  0  0  0  0  0  0  0  0  0  0  0
  -12.7412   -8.3375   17.2993 C   0  0  0  0  0  0  0  0  0  0  0  0
  -12.4213   -9.0722   16.4003 O   0  0  0  0  0  0  0  0  0  0  0  0
  -11.6929   -7.4248   18.0424 C   0  0  0  0  0  0  0  0  0  0  0  0
  -10.3014   -7.3698   17.5028 N   0  0  0  0  0  0  0  0  0  0  0  0
   -9.5758   -6.1770   17.9607 C   0  0  0  0  0  0  0  0  0  0  0  0
   -8.3443   -6.1412   17.0812 C   0  0  0  0  0  0  0  0  0  0  0  0
   -8.8496   -6.6677   15.7574 C   0  0  0  0  0  0  0  0  0  0  0  0
  -10.1460   -7.4159   16.0557 C   0  0  0  0  0  0  0  0  0  0  0  0
  -16.9770  -11.2809   19.9378 C   0  0  0  0  0  0  0  0  0  0  0  0
  -17.0983  -12.0485   21.3161 C   0  0  0  0  0  0  0  0  0  0  0  0
  -17.5613  -13.3958   21.5051 C   0  0  0  0  0  0  0  0  0  0  0  0
  -17.6292  -13.6072   22.8638 C   0  0  0  0  0  0  0  0  0  0  0  0
  -17.2671  -12.4205   23.4312 N   0  0  0  0  0  0  0  0  0  0  0  0
  -17.3197  -12.0527   24.8358 C   0  0  0  0  0  0  0  0  0  0  0  0
  -18.7555  -12.0082   25.3887 C   0  0  0  0  0  0  0  0  0  0  0  0
  -18.8143  -13.0991   26.4504 C   0  0  0  0  0  0  0  0  0  0  0  0
  -17.4018  -13.1290   27.0065 C   0  0  0  0  0  0  0  0  0  0  0  0
  -16.5364  -12.9951   25.7620 C   0  0  0  0  0  0  0  0  0  0  0  0
  -16.9302  -11.4746   22.5222 N   0  0  0  0  0  0  0  0  0  0  0  0
  -16.4962   -8.6361   20.3721 H   0  0  0  0  0  0  0  0  0  0  0  0
  -14.7273   -8.7381   20.3060 H   0  0  0  0  0  0  0  0  0  0  0  0
  -15.5799   -9.5899   21.5490 H   0  0  0  0  0  0  0  0  0  0  0  0
  -16.2612  -10.7095   17.6015 H   0  0  0  0  0  0  0  0  0  0  0  0
  -14.5458  -10.6965   17.9142 H   0  0  0  0  0  0  0  0  0  0  0  0
  -16.2648   -8.2108   18.0776 H   0  0  0  0  0  0  0  0  0  0  0  0
  -15.5578   -8.8873   16.5410 H   0  0  0  0  0  0  0  0  0  0  0  0
  -15.5506   -6.4720   17.7237 H   0  0  0  0  0  0  0  0  0  0  0  0
  -14.8984   -7.0898   16.1059 H   0  0  0  0  0  0  0  0  0  0  0  0
  -13.9736   -6.1127   17.1665 H   0  0  0  0  0  0  0  0  0  0  0  0
  -11.6367   -7.7857   19.0761 H   0  0  0  0  0  0  0  0  0  0  0  0
  -12.1013   -6.4120   18.0757 H   0  0  0  0  0  0  0  0  0  0  0  0
   -9.3094   -6.2499   19.0199 H   0  0  0  0  0  0  0  0  0  0  0  0
  -10.1536   -5.2604   17.8123 H   0  0  0  0  0  0  0  0  0  0  0  0
   -7.9145   -5.1387   16.9966 H   0  0  0  0  0  0  0  0  0  0  0  0
   -7.5717   -6.8097   17.4803 H   0  0  0  0  0  0  0  0  0  0  0  0
   -8.1145   -7.3534   15.3344 H   0  0  0  0  0  0  0  0  0  0  0  0
   -9.0288   -5.8355   15.0708 H   0  0  0  0  0  0  0  0  0  0  0  0
  -10.9885   -6.9611   15.5369 H   0  0  0  0  0  0  0  0  0  0  0  0
  -10.0632   -8.4521   15.7108 H   0  0  0  0  0  0  0  0  0  0  0  0
  -17.8647  -10.6435   19.8350 H   0  0  0  0  0  0  0  0  0  0  0  0
  -17.0601  -12.0659   19.1744 H   0  0  0  0  0  0  0  0  0  0  0  0
  -17.8321  -14.1016   20.7328 H   0  0  0  0  0  0  0  0  0  0  0  0
  -17.9398  -14.4602   23.4496 H   0  0  0  0  0  0  0  0  0  0  0  0
  -16.8877  -11.0455   24.9102 H   0  0  0  0  0  0  0  0  0  0  0  0
  -19.5324  -12.1411   24.6288 H   0  0  0  0  0  0  0  0  0  0  0  0
  -18.9274  -11.0341   25.8638 H   0  0  0  0  0  0  0  0  0  0  0  0
  -19.0607  -14.0625   25.9886 H   0  0  0  0  0  0  0  0  0  0  0  0
  -19.5616  -12.8880   27.2206 H   0  0  0  0  0  0  0  0  0  0  0  0
  -17.2372  -12.2768   27.6763 H   0  0  0  0  0  0  0  0  0  0  0  0
  -17.1920  -14.0473   27.5620 H   0  0  0  0  0  0  0  0  0  0  0  0
  -16.3839  -13.9843   25.3158 H   0  0  0  0  0  0  0  0  0  0  0  0
  -15.5482  -12.5893   25.9994 H   0  0  0  0  0  0  0  0  0  0  0  0
  1  2  1  0
  2  3  1  0
  3  4  1  0
  4  5  1  0
  5  6  1  0
  5  7  1  0
  7  8  2  0
  7  9  1  0
  9 10  1  0
 10 11  1  0
 11 12  1  0
 12 13  1  0
 13 14  1  0
  2 15  1  0
 15 16  1  0
 16 17  1  0
 17 18  2  0
 18 19  1  0
 19 20  1  0
 20 21  1  0
 21 22  1  0
 22 23  1  0
 23 24  1  0
 19 25  1  0
 14 10  1  0
 25 16  2  0
 24 20  1  0
  1 26  1  0
  1 27  1  0
  1 28  1  0
  3 29  1  0
  3 30  1  0
  4 31  1  0
  4 32  1  0
  6 33  1  0
  6 34  1  0
  6 35  1  0
  9 36  1  0
  9 37  1  0
 11 38  1  0
 11 39  1  0
 12 40  1  0
 12 41  1  0
 13 42  1  0
 13 43  1  0
 14 44  1  0
 14 45  1  0
 15 46  1  0
 15 47  1  0
 17 48  1  0
 18 49  1  0
 20 50  1  0
 21 51  1  0
 21 52  1  0
 22 53  1  0
 22 54  1  0
 23 55  1  0
 23 56  1  0
 24 57  1  0
 24 58  1  0
M  END
>  <Energy>  (231) 
186.77113899284421

>  <compound_id>  (231) 
8743

>  <target_id>  (231) 
1

>  <reference_id>  (231) 
99

>  <inspiration_ids>  (231) 
[123, 99]

>  <energy_score>  (231) 
33.65325431404767

>  <distance_score>  (231) 
14.44812452754868

>  <path>  (231) 
/opt/xchem-fragalysis-2/maxwin/BulkDock/SCRATCH/511015/C8743-P99/C8743-P99.minimised.mol

>  <scratch_subdir>  (231) 
/opt/xchem-fragalysis-2/maxwin/BulkDock/SCRATCH/511015/C8743-P99

>  <fragmenstein_runtime>  (231) 
47.16695022583008

>  <fragmenstein_outcome>  (231) 
too moved

>  <fragmenstein_mode>  (231) 
expansion

>  <fragmenstein_error>  (231) 


$$$$
C8745-P123
     RDKit          3D

 58 60  0  0  0  0  0  0  0  0999 V2000
  -18.6324  -15.1429   19.0132 C   0  0  0  0  0  0  0  0  0  0  0  0
  -17.2743  -14.6798   19.5568 C   0  0  0  0  0  0  0  0  0  0  0  0
  -16.6224  -13.8310   18.1652 C   0  0  0  0  0  0  0  0  0  0  0  0
  -16.3632  -12.4115   17.8796 N   0  0  0  0  0  0  0  0  0  0  0  0
  -16.1765  -11.7044   16.5946 C   0  0  0  0  0  0  0  0  0  0  0  0
  -16.2720  -12.1006   15.4644 O   0  0  0  0  0  0  0  0  0  0  0  0
  -15.6657  -10.2059   16.8094 C   0  0  0  0  0  0  0  0  0  0  0  0
  -15.2589   -9.4597   15.5467 N   0  0  0  0  0  0  0  0  0  0  0  0
  -14.7277   -8.1136   15.8204 C   0  0  0  0  0  0  0  0  0  0  0  0
  -14.0375   -7.6976   14.5223 C   0  0  0  0  0  0  0  0  0  0  0  0
  -13.5722   -9.0043   13.8997 C   0  0  0  0  0  0  0  0  0  0  0  0
  -14.2015  -10.1118   14.7552 C   0  0  0  0  0  0  0  0  0  0  0  0
  -16.6288  -15.9701   20.6571 N   0  0  0  0  0  0  0  0  0  0  0  0
  -14.8206  -16.2771   20.8916 C   0  0  0  0  0  0  0  0  0  0  0  0
  -17.4244  -15.6303   21.9781 C   0  0  0  0  0  0  0  0  0  0  0  0
  -17.9599  -16.7029   22.9313 C   0  0  0  0  0  0  0  0  0  0  0  0
  -18.5855  -17.9517   22.6737 C   0  0  0  0  0  0  0  0  0  0  0  0
  -18.8457  -18.5029   23.9114 C   0  0  0  0  0  0  0  0  0  0  0  0
  -18.4655  -17.5705   24.8325 N   0  0  0  0  0  0  0  0  0  0  0  0
  -18.8339  -17.5132   26.2317 C   0  0  0  0  0  0  0  0  0  0  0  0
  -17.7489  -16.9472   27.1497 C   0  0  0  0  0  0  0  0  0  0  0  0
  -18.2092  -17.3242   28.5547 C   0  0  0  0  0  0  0  0  0  0  0  0
  -19.1508  -18.5174   28.3900 C   0  0  0  0  0  0  0  0  0  0  0  0
  -19.1544  -18.8488   26.9018 C   0  0  0  0  0  0  0  0  0  0  0  0
  -17.8985  -16.4833   24.2635 N   0  0  0  0  0  0  0  0  0  0  0  0
  -18.5400  -15.8733   18.2087 H   0  0  0  0  0  0  0  0  0  0  0  0
  -19.2485  -15.6043   19.7903 H   0  0  0  0  0  0  0  0  0  0  0  0
  -19.2028  -14.2902   18.6272 H   0  0  0  0  0  0  0  0  0  0  0  0
  -17.5248  -13.8700   20.2641 H   0  0  0  0  0  0  0  0  0  0  0  0
  -17.1451  -14.1941   17.2707 H   0  0  0  0  0  0  0  0  0  0  0  0
  -15.5648  -14.1072   18.1039 H   0  0  0  0  0  0  0  0  0  0  0  0
  -16.2835  -11.7457   18.6395 H   0  0  0  0  0  0  0  0  0  0  0  0
  -16.4862   -9.6563   17.2840 H   0  0  0  0  0  0  0  0  0  0  0  0
  -14.8136  -10.2462   17.4987 H   0  0  0  0  0  0  0  0  0  0  0  0
  -14.0044   -8.1314   16.6423 H   0  0  0  0  0  0  0  0  0  0  0  0
  -15.5277   -7.4151   16.0855 H   0  0  0  0  0  0  0  0  0  0  0  0
  -14.7548   -7.2064   13.8538 H   0  0  0  0  0  0  0  0  0  0  0  0
  -13.2118   -7.0014   14.6967 H   0  0  0  0  0  0  0  0  0  0  0  0
  -12.4826   -9.0911   13.8999 H   0  0  0  0  0  0  0  0  0  0  0  0
  -13.9125   -9.0677   12.8601 H   0  0  0  0  0  0  0  0  0  0  0  0
  -14.6022  -10.8970   14.1078 H   0  0  0  0  0  0  0  0  0  0  0  0
  -13.4478  -10.5653   15.4049 H   0  0  0  0  0  0  0  0  0  0  0  0
  -14.1524  -15.7428   21.5990 H   0  0  0  0  0  0  0  0  0  0  0  0
  -14.4018  -16.4882   19.9216 H   0  0  0  0  0  0  0  0  0  0  0  0
  -14.4540  -17.1403   21.3336 H   0  0  0  0  0  0  0  0  0  0  0  0
  -18.3505  -15.1222   21.6854 H   0  0  0  0  0  0  0  0  0  0  0  0
  -16.8786  -14.8802   22.5612 H   0  0  0  0  0  0  0  0  0  0  0  0
  -18.7814  -18.3962   21.7071 H   0  0  0  0  0  0  0  0  0  0  0  0
  -19.3142  -19.4363   24.1889 H   0  0  0  0  0  0  0  0  0  0  0  0
  -19.7211  -16.8660   26.2784 H   0  0  0  0  0  0  0  0  0  0  0  0
  -16.7765  -17.4053   26.9319 H   0  0  0  0  0  0  0  0  0  0  0  0
  -17.6313  -15.8638   27.0421 H   0  0  0  0  0  0  0  0  0  0  0  0
  -17.3588  -17.5586   29.2022 H   0  0  0  0  0  0  0  0  0  0  0  0
  -18.7478  -16.4891   29.0174 H   0  0  0  0  0  0  0  0  0  0  0  0
  -18.8422  -19.3749   28.9955 H   0  0  0  0  0  0  0  0  0  0  0  0
  -20.1595  -18.2364   28.7154 H   0  0  0  0  0  0  0  0  0  0  0  0
  -18.3843  -19.5963   26.6768 H   0  0  0  0  0  0  0  0  0  0  0  0
  -20.1183  -19.2586   26.5830 H   0  0  0  0  0  0  0  0  0  0  0  0
  1  2  1  0
  2  3  1  0
  3  4  1  0
  4  5  1  0
  5  6  2  0
  5  7  1  0
  7  8  1  0
  8  9  1  0
  9 10  1  0
 10 11  1  0
 11 12  1  0
  2 13  1  0
 13 14  1  0
 13 15  1  0
 15 16  1  0
 16 17  1  0
 17 18  2  0
 18 19  1  0
 19 20  1  0
 20 21  1  0
 21 22  1  0
 22 23  1  0
 23 24  1  0
 19 25  1  0
 12  8  1  0
 25 16  2  0
 24 20  1  0
  1 26  1  0
  1 27  1  0
  1 28  1  0
  2 29  1  0
  3 30  1  0
  3 31  1  0
  4 32  1  0
  7 33  1  0
  7 34  1  0
  9 35  1  0
  9 36  1  0
 10 37  1  0
 10 38  1  0
 11 39  1  0
 11 40  1  0
 12 41  1  0
 12 42  1  0
 14 43  1  0
 14 44  1  0
 14 45  1  0
 15 46  1  0
 15 47  1  0
 17 48  1  0
 18 49  1  0
 20 50  1  0
 21 51  1  0
 21 52  1  0
 22 53  1  0
 22 54  1  0
 23 55  1  0
 23 56  1  0
 24 57  1  0
 24 58  1  0
M  END
>  <Energy>  (232) 
257.20827700577661

>  <compound_id>  (232) 
8745

>  <target_id>  (232) 
1

>  <reference_id>  (232) 
123

>  <inspiration_ids>  (232) 
[123, 99]

>  <energy_score>  (232) 
124.0691460377725

>  <distance_score>  (232) 
15.141454428791063

>  <path>  (232) 
/opt/xchem-fragalysis-2/maxwin/BulkDock/SCRATCH/511015/C8745-P123/C8745-P123.minimised.mol

>  <scratch_subdir>  (232) 
/opt/xchem-fragalysis-2/maxwin/BulkDock/SCRATCH/511015/C8745-P123

>  <fragmenstein_runtime>  (232) 
57.20443916320801

>  <fragmenstein_outcome>  (232) 
too moved

>  <fragmenstein_mode>  (232) 
expansion

>  <fragmenstein_error>  (232) 


$$$$
C8745-P99
     RDKit          3D

 58 60  0  0  0  0  0  0  0  0999 V2000
  -10.3205  -15.9903   12.7100 C   0  0  0  0  0  0  0  0  0  0  0  0
  -11.4022  -15.1346   13.4166 C   0  0  0  0  0  0  0  0  0  0  0  0
  -11.1348  -13.5207   12.0822 C   0  0  0  0  0  0  0  0  0  0  0  0
  -10.1874  -11.8633   11.5232 N   0  0  0  0  0  0  0  0  0  0  0  0
   -9.8108  -11.1616    9.8325 C   0  0  0  0  0  0  0  0  0  0  0  0
  -10.0699  -11.7670    8.8085 O   0  0  0  0  0  0  0  0  0  0  0  0
   -9.0966   -9.2777    9.3698 C   0  0  0  0  0  0  0  0  0  0  0  0
   -8.6157   -7.8178    8.0635 N   0  0  0  0  0  0  0  0  0  0  0  0
   -9.6902   -6.6442    6.9009 C   0  0  0  0  0  0  0  0  0  0  0  0
   -9.4482   -5.1218    6.3959 C   0  0  0  0  0  0  0  0  0  0  0  0
   -8.6067   -4.6308    7.5097 C   0  0  0  0  0  0  0  0  0  0  0  0
   -7.8606   -5.9713    7.7433 C   0  0  0  0  0  0  0  0  0  0  0  0
  -12.3881  -16.4551   14.6126 N   0  0  0  0  0  0  0  0  0  0  0  0
  -13.0619  -17.3397   13.6045 C   0  0  0  0  0  0  0  0  0  0  0  0
  -11.9750  -17.9020   16.0380 C   0  0  0  0  0  0  0  0  0  0  0  0
  -11.3639  -18.1685   18.0104 C   0  0  0  0  0  0  0  0  0  0  0  0
  -11.1232  -17.0063   19.0116 C   0  0  0  0  0  0  0  0  0  0  0  0
  -12.2202  -15.9287   19.6794 C   0  0  0  0  0  0  0  0  0  0  0  0
  -12.9421  -16.7975   20.2852 N   0  0  0  0  0  0  0  0  0  0  0  0
  -13.7196  -16.6374   21.7769 C   0  0  0  0  0  0  0  0  0  0  0  0
  -13.0920  -16.6785   23.2730 C   0  0  0  0  0  0  0  0  0  0  0  0
  -14.0747  -17.4611   24.1370 C   0  0  0  0  0  0  0  0  0  0  0  0
  -15.4094  -17.5079   23.3901 C   0  0  0  0  0  0  0  0  0  0  0  0
  -15.2028  -17.1292   21.9147 C   0  0  0  0  0  0  0  0  0  0  0  0
  -12.0884  -18.4483   19.6937 N   0  0  0  0  0  0  0  0  0  0  0  0
   -9.3351  -15.5374   12.8576 H   0  0  0  0  0  0  0  0  0  0  0  0
  -10.2682  -17.0196   13.0690 H   0  0  0  0  0  0  0  0  0  0  0  0
  -10.5167  -16.0600   11.6350 H   0  0  0  0  0  0  0  0  0  0  0  0
  -12.3412  -15.2188   12.8539 H   0  0  0  0  0  0  0  0  0  0  0  0
  -12.0586  -12.9888   12.3527 H   0  0  0  0  0  0  0  0  0  0  0  0
  -11.2798  -13.9811   11.0968 H   0  0  0  0  0  0  0  0  0  0  0  0
   -9.9699  -11.1652   12.2258 H   0  0  0  0  0  0  0  0  0  0  0  0
  -10.1488   -9.0935    9.3208 H   0  0  0  0  0  0  0  0  0  0  0  0
   -8.4729   -9.0527   10.2321 H   0  0  0  0  0  0  0  0  0  0  0  0
   -9.8054   -6.2775    7.8343 H   0  0  0  0  0  0  0  0  0  0  0  0
  -10.1870   -7.3383    6.2371 H   0  0  0  0  0  0  0  0  0  0  0  0
   -8.8861   -4.8801    5.5124 H   0  0  0  0  0  0  0  0  0  0  0  0
  -10.3695   -4.5429    6.2820 H   0  0  0  0  0  0  0  0  0  0  0  0
   -7.9203   -3.8364    7.1952 H   0  0  0  0  0  0  0  0  0  0  0  0
   -9.1301   -4.2723    8.3963 H   0  0  0  0  0  0  0  0  0  0  0  0
   -7.2667   -5.6225    8.6506 H   0  0  0  0  0  0  0  0  0  0  0  0
   -7.3261   -5.9524    6.7458 H   0  0  0  0  0  0  0  0  0  0  0  0
  -12.3342  -17.9743   13.0933 H   0  0  0  0  0  0  0  0  0  0  0  0
  -13.7996  -17.9839   14.0885 H   0  0  0  0  0  0  0  0  0  0  0  0
  -13.6220  -16.7554   12.8692 H   0  0  0  0  0  0  0  0  0  0  0  0
  -12.8725  -18.5349   15.9678 H   0  0  0  0  0  0  0  0  0  0  0  0
  -11.2772  -18.6091   15.5247 H   0  0  0  0  0  0  0  0  0  0  0  0
  -10.2407  -16.2726   19.3190 H   0  0  0  0  0  0  0  0  0  0  0  0
  -12.0247  -15.3420   20.5344 H   0  0  0  0  0  0  0  0  0  0  0  0
  -13.7106  -15.6239   21.6695 H   0  0  0  0  0  0  0  0  0  0  0  0
  -12.0329  -16.8221   23.3992 H   0  0  0  0  0  0  0  0  0  0  0  0
  -12.9478  -15.7467   23.8019 H   0  0  0  0  0  0  0  0  0  0  0  0
  -13.7108  -18.4624   24.3645 H   0  0  0  0  0  0  0  0  0  0  0  0
  -14.2110  -16.9731   25.1097 H   0  0  0  0  0  0  0  0  0  0  0  0
  -15.8874  -18.4878   23.4893 H   0  0  0  0  0  0  0  0  0  0  0  0
  -16.0960  -16.7865   23.8514 H   0  0  0  0  0  0  0  0  0  0  0  0
  -15.4720  -17.8890   21.1883 H   0  0  0  0  0  0  0  0  0  0  0  0
  -15.9947  -16.4073   21.7103 H   0  0  0  0  0  0  0  0  0  0  0  0
  1  2  1  0
  2  3  1  0
  3  4  1  0
  4  5  1  0
  5  6  2  0
  5  7  1  0
  7  8  1  0
  8  9  1  0
  9 10  1  0
 10 11  1  0
 11 12  1  0
  2 13  1  0
 13 14  1  0
 13 15  1  0
 15 16  1  0
 16 17  1  0
 17 18  2  0
 18 19  1  0
 19 20  1  0
 20 21  1  0
 21 22  1  0
 22 23  1  0
 23 24  1  0
 19 25  1  0
 12  8  1  0
 25 16  2  0
 24 20  1  0
  1 26  1  0
  1 27  1  0
  1 28  1  0
  2 29  1  0
  3 30  1  0
  3 31  1  0
  4 32  1  0
  7 33  1  0
  7 34  1  0
  9 35  1  0
  9 36  1  0
 10 37  1  0
 10 38  1  0
 11 39  1  0
 11 40  1  0
 12 41  1  0
 12 42  1  0
 14 43  1  0
 14 44  1  0
 14 45  1  0
 15 46  1  0
 15 47  1  0
 17 48  1  0
 18 49  1  0
 20 50  1  0
 21 51  1  0
 21 52  1  0
 22 53  1  0
 22 54  1  0
 23 55  1  0
 23 56  1  0
 24 57  1  0
 24 58  1  0
M  END
>  <Energy>  (233) 
1738.7492028104209

>  <compound_id>  (233) 
8745

>  <target_id>  (233) 
1

>  <reference_id>  (233) 
99

>  <inspiration_ids>  (233) 
[123, 99]

>  <energy_score>  (233) 
1605.610071842461

>  <distance_score>  (233) 
11.51216754450189

>  <path>  (233) 
/opt/xchem-fragalysis-2/maxwin/BulkDock/SCRATCH/511015/C8745-P99/C8745-P99.minimised.mol

>  <scratch_subdir>  (233) 
/opt/xchem-fragalysis-2/maxwin/BulkDock/SCRATCH/511015/C8745-P99

>  <fragmenstein_runtime>  (233) 
49.87651824951172

>  <fragmenstein_outcome>  (233) 
too moved

>  <fragmenstein_mode>  (233) 
expansion

>  <fragmenstein_error>  (233) 


$$$$
C8746-P123
     RDKit          3D

 58 60  0  0  0  0  0  0  0  0999 V2000
   -8.6576  -13.1573   10.1235 C   0  0  0  0  0  0  0  0  0  0  0  0
   -8.0324  -12.2560   11.1795 C   0  0  0  0  0  0  0  0  0  0  0  0
   -7.2269  -10.8052   10.1673 C   0  0  0  0  0  0  0  0  0  0  0  0
   -7.7759   -9.4646    8.9887 N   0  0  0  0  0  0  0  0  0  0  0  0
   -8.9794   -9.6088    9.7735 C   0  0  0  0  0  0  0  0  0  0  0  0
   -7.3103   -7.7395    8.8212 C   0  0  0  0  0  0  0  0  0  0  0  0
   -6.5714   -7.3502    9.6789 O   0  0  0  0  0  0  0  0  0  0  0  0
   -7.8776   -6.1016    7.5566 C   0  0  0  0  0  0  0  0  0  0  0  0
   -7.5027   -4.5964    7.8793 N   0  0  0  0  0  0  0  0  0  0  0  0
   -8.7032   -3.7463    7.9715 C   0  0  0  0  0  0  0  0  0  0  0  0
   -8.2697   -2.3035    7.7274 C   0  0  0  0  0  0  0  0  0  0  0  0
   -7.0003   -2.4227    6.9220 C   0  0  0  0  0  0  0  0  0  0  0  0
   -6.8589   -3.9188    6.6966 C   0  0  0  0  0  0  0  0  0  0  0  0
   -7.3078  -13.4566   12.3589 N   0  0  0  0  0  0  0  0  0  0  0  0
   -8.1536  -14.6424   13.4697 C   0  0  0  0  0  0  0  0  0  0  0  0
   -7.7024  -15.8937   14.8730 C   0  0  0  0  0  0  0  0  0  0  0  0
   -8.1961  -17.3499   14.8367 C   0  0  0  0  0  0  0  0  0  0  0  0
   -8.4820  -17.8330   16.2668 C   0  0  0  0  0  0  0  0  0  0  0  0
   -7.7671  -17.0466   17.2753 N   0  0  0  0  0  0  0  0  0  0  0  0
   -6.7929  -17.9177   18.5307 C   0  0  0  0  0  0  0  0  0  0  0  0
   -6.6425  -19.4984   18.2605 C   0  0  0  0  0  0  0  0  0  0  0  0
   -6.8756  -20.2308   19.5725 C   0  0  0  0  0  0  0  0  0  0  0  0
   -6.4764  -19.2730   20.6724 C   0  0  0  0  0  0  0  0  0  0  0  0
   -6.4486  -17.8588   20.0821 C   0  0  0  0  0  0  0  0  0  0  0  0
   -7.2613  -15.7698   16.3446 N   0  0  0  0  0  0  0  0  0  0  0  0
   -9.2446  -12.6108    9.3836 H   0  0  0  0  0  0  0  0  0  0  0  0
   -9.3260  -13.8904   10.5873 H   0  0  0  0  0  0  0  0  0  0  0  0
   -7.8778  -13.7067    9.5858 H   0  0  0  0  0  0  0  0  0  0  0  0
   -8.7852  -11.7662   11.8076 H   0  0  0  0  0  0  0  0  0  0  0  0
   -6.4616  -11.3024    9.5582 H   0  0  0  0  0  0  0  0  0  0  0  0
   -6.7106  -10.2154   10.9384 H   0  0  0  0  0  0  0  0  0  0  0  0
   -9.7558   -9.1552    9.1801 H   0  0  0  0  0  0  0  0  0  0  0  0
   -9.3719  -10.6252    9.7699 H   0  0  0  0  0  0  0  0  0  0  0  0
   -8.8840   -9.2443   10.7914 H   0  0  0  0  0  0  0  0  0  0  0  0
   -7.3149   -6.0758    6.5821 H   0  0  0  0  0  0  0  0  0  0  0  0
   -8.9688   -6.0401    7.3159 H   0  0  0  0  0  0  0  0  0  0  0  0
   -9.4227   -3.9868    7.1819 H   0  0  0  0  0  0  0  0  0  0  0  0
   -9.1496   -3.8824    8.9416 H   0  0  0  0  0  0  0  0  0  0  0  0
   -8.0753   -1.7567    8.6499 H   0  0  0  0  0  0  0  0  0  0  0  0
   -9.0427   -1.7519    7.1813 H   0  0  0  0  0  0  0  0  0  0  0  0
   -7.0589   -1.8743    5.9765 H   0  0  0  0  0  0  0  0  0  0  0  0
   -6.1501   -2.0247    7.4871 H   0  0  0  0  0  0  0  0  0  0  0  0
   -5.8026   -4.1325    6.5900 H   0  0  0  0  0  0  0  0  0  0  0  0
   -7.3673   -4.1780    5.7581 H   0  0  0  0  0  0  0  0  0  0  0  0
   -6.9231  -12.7950   13.0226 H   0  0  0  0  0  0  0  0  0  0  0  0
   -8.5699  -15.3338   12.7258 H   0  0  0  0  0  0  0  0  0  0  0  0
   -8.9639  -14.0463   13.9030 H   0  0  0  0  0  0  0  0  0  0  0  0
   -8.5804  -17.8603   13.9564 H   0  0  0  0  0  0  0  0  0  0  0  0
   -8.9179  -18.7835   16.5546 H   0  0  0  0  0  0  0  0  0  0  0  0
   -5.8136  -17.4329   18.3099 H   0  0  0  0  0  0  0  0  0  0  0  0
   -7.2998  -19.8992   17.4865 H   0  0  0  0  0  0  0  0  0  0  0  0
   -5.6091  -19.7083   17.9493 H   0  0  0  0  0  0  0  0  0  0  0  0
   -6.2923  -21.1570   19.6182 H   0  0  0  0  0  0  0  0  0  0  0  0
   -7.9222  -20.5302   19.6667 H   0  0  0  0  0  0  0  0  0  0  0  0
   -7.1308  -19.3368   21.5435 H   0  0  0  0  0  0  0  0  0  0  0  0
   -5.4763  -19.5384   21.0402 H   0  0  0  0  0  0  0  0  0  0  0  0
   -6.9376  -17.1159   20.7021 H   0  0  0  0  0  0  0  0  0  0  0  0
   -5.3819  -17.6381   20.1808 H   0  0  0  0  0  0  0  0  0  0  0  0
  1  2  1  0
  2  3  1  0
  3  4  1  0
  4  5  1  0
  4  6  1  0
  6  7  2  0
  6  8  1  0
  8  9  1  0
  9 10  1  0
 10 11  1  0
 11 12  1  0
 12 13  1  0
  2 14  1  0
 14 15  1  0
 15 16  1  0
 16 17  1  0
 17 18  2  0
 18 19  1  0
 19 20  1  0
 20 21  1  0
 21 22  1  0
 22 23  1  0
 23 24  1  0
 19 25  1  0
 13  9  1  0
 25 16  2  0
 24 20  1  0
  1 26  1  0
  1 27  1  0
  1 28  1  0
  2 29  1  0
  3 30  1  0
  3 31  1  0
  5 32  1  0
  5 33  1  0
  5 34  1  0
  8 35  1  0
  8 36  1  0
 10 37  1  0
 10 38  1  0
 11 39  1  0
 11 40  1  0
 12 41  1  0
 12 42  1  0
 13 43  1  0
 13 44  1  0
 14 45  1  0
 15 46  1  0
 15 47  1  0
 17 48  1  0
 18 49  1  0
 20 50  1  0
 21 51  1  0
 21 52  1  0
 22 53  1  0
 22 54  1  0
 23 55  1  0
 23 56  1  0
 24 57  1  0
 24 58  1  0
M  END
>  <Energy>  (234) 
763.10138860328891

>  <compound_id>  (234) 
8746

>  <target_id>  (234) 
1

>  <reference_id>  (234) 
123

>  <inspiration_ids>  (234) 
[123, 99]

>  <energy_score>  (234) 
632.4462534831607

>  <distance_score>  (234) 
11.910558935546662

>  <path>  (234) 
/opt/xchem-fragalysis-2/maxwin/BulkDock/SCRATCH/511015/C8746-P123/C8746-P123.minimised.mol

>  <scratch_subdir>  (234) 
/opt/xchem-fragalysis-2/maxwin/BulkDock/SCRATCH/511015/C8746-P123

>  <fragmenstein_runtime>  (234) 
36.19552659988403

>  <fragmenstein_outcome>  (234) 
too moved

>  <fragmenstein_mode>  (234) 
expansion

>  <fragmenstein_error>  (234) 


$$$$
C8746-P99
     RDKit          3D

 58 60  0  0  0  0  0  0  0  0999 V2000
   -9.0051  -13.5234   19.5644 C   0  0  0  0  0  0  0  0  0  0  0  0
  -10.3321  -14.0285   19.0793 C   0  0  0  0  0  0  0  0  0  0  0  0
  -10.8572  -12.5020   17.8077 C   0  0  0  0  0  0  0  0  0  0  0  0
  -11.6426  -10.8558   17.3963 N   0  0  0  0  0  0  0  0  0  0  0  0
  -11.5546  -11.4154   15.9317 C   0  0  0  0  0  0  0  0  0  0  0  0
  -13.0069  -10.3378   17.6429 C   0  0  0  0  0  0  0  0  0  0  0  0
  -13.9867  -10.8836   18.0892 O   0  0  0  0  0  0  0  0  0  0  0  0
  -13.1734   -8.7958   17.3793 C   0  0  0  0  0  0  0  0  0  0  0  0
  -12.6776   -8.1259   16.1364 N   0  0  0  0  0  0  0  0  0  0  0  0
  -13.6504   -8.0593   15.0508 C   0  0  0  0  0  0  0  0  0  0  0  0
  -13.3029   -6.7867   14.2745 C   0  0  0  0  0  0  0  0  0  0  0  0
  -12.2613   -6.0553   15.1082 C   0  0  0  0  0  0  0  0  0  0  0  0
  -12.3569   -6.7228   16.4541 C   0  0  0  0  0  0  0  0  0  0  0  0
  -11.5959  -15.4833   19.7555 N   0  0  0  0  0  0  0  0  0  0  0  0
  -12.7415  -15.8851   21.0782 C   0  0  0  0  0  0  0  0  0  0  0  0
  -13.8561  -16.8333   21.9495 C   0  0  0  0  0  0  0  0  0  0  0  0
  -13.8141  -17.1016   23.3859 C   0  0  0  0  0  0  0  0  0  0  0  0
  -14.8138  -18.0009   23.6486 C   0  0  0  0  0  0  0  0  0  0  0  0
  -15.4010  -18.2490   22.4439 N   0  0  0  0  0  0  0  0  0  0  0  0
  -16.4766  -19.1901   22.1734 C   0  0  0  0  0  0  0  0  0  0  0  0
  -17.8028  -18.7828   22.8370 C   0  0  0  0  0  0  0  0  0  0  0  0
  -18.3739  -20.0728   23.4107 C   0  0  0  0  0  0  0  0  0  0  0  0
  -17.1394  -20.8595   23.8146 C   0  0  0  0  0  0  0  0  0  0  0  0
  -16.1769  -20.6197   22.6587 C   0  0  0  0  0  0  0  0  0  0  0  0
  -14.8756  -17.5324   21.4129 N   0  0  0  0  0  0  0  0  0  0  0  0
   -8.3709  -14.3235   19.7012 H   0  0  0  0  0  0  0  0  0  0  0  0
   -9.2048  -13.2521   20.5845 H   0  0  0  0  0  0  0  0  0  0  0  0
   -8.4613  -12.8559   18.8939 H   0  0  0  0  0  0  0  0  0  0  0  0
   -9.8696  -15.0450   18.8932 H   0  0  0  0  0  0  0  0  0  0  0  0
  -10.9062  -12.9736   16.8776 H   0  0  0  0  0  0  0  0  0  0  0  0
   -9.8839  -12.0918   17.8972 H   0  0  0  0  0  0  0  0  0  0  0  0
  -11.5021  -10.5022   15.3159 H   0  0  0  0  0  0  0  0  0  0  0  0
  -10.8061  -12.0569   15.4481 H   0  0  0  0  0  0  0  0  0  0  0  0
  -12.5533  -11.7478   15.6188 H   0  0  0  0  0  0  0  0  0  0  0  0
  -14.2310   -8.5439   17.5372 H   0  0  0  0  0  0  0  0  0  0  0  0
  -12.6433   -8.3572   18.2388 H   0  0  0  0  0  0  0  0  0  0  0  0
  -14.6805   -7.9787   15.4190 H   0  0  0  0  0  0  0  0  0  0  0  0
  -13.5891   -8.9469   14.4132 H   0  0  0  0  0  0  0  0  0  0  0  0
  -12.9433   -7.0258   13.2740 H   0  0  0  0  0  0  0  0  0  0  0  0
  -14.1982   -6.1651   14.1571 H   0  0  0  0  0  0  0  0  0  0  0  0
  -11.2557   -6.1675   14.6991 H   0  0  0  0  0  0  0  0  0  0  0  0
  -12.4731   -4.9874   15.1984 H   0  0  0  0  0  0  0  0  0  0  0  0
  -13.1606   -6.2546   17.0387 H   0  0  0  0  0  0  0  0  0  0  0  0
  -11.4235   -6.6257   17.0172 H   0  0  0  0  0  0  0  0  0  0  0  0
  -12.4075  -15.5311   19.1250 H   0  0  0  0  0  0  0  0  0  0  0  0
  -12.0079  -16.0271   21.8736 H   0  0  0  0  0  0  0  0  0  0  0  0
  -13.0106  -16.6750   20.3984 H   0  0  0  0  0  0  0  0  0  0  0  0
  -13.0929  -16.7164   24.0952 H   0  0  0  0  0  0  0  0  0  0  0  0
  -15.1177  -18.5018   24.5564 H   0  0  0  0  0  0  0  0  0  0  0  0
  -16.6043  -19.2131   21.0831 H   0  0  0  0  0  0  0  0  0  0  0  0
  -18.4910  -18.3276   22.1170 H   0  0  0  0  0  0  0  0  0  0  0  0
  -17.6512  -18.0552   23.6432 H   0  0  0  0  0  0  0  0  0  0  0  0
  -19.0462  -19.8898   24.2538 H   0  0  0  0  0  0  0  0  0  0  0  0
  -18.9327  -20.6142   22.6382 H   0  0  0  0  0  0  0  0  0  0  0  0
  -16.7234  -20.4607   24.7469 H   0  0  0  0  0  0  0  0  0  0  0  0
  -17.3521  -21.9222   23.9626 H   0  0  0  0  0  0  0  0  0  0  0  0
  -16.4050  -21.3273   21.8515 H   0  0  0  0  0  0  0  0  0  0  0  0
  -15.1356  -20.7861   22.9524 H   0  0  0  0  0  0  0  0  0  0  0  0
  1  2  1  0
  2  3  1  0
  3  4  1  0
  4  5  1  0
  4  6  1  0
  6  7  2  0
  6  8  1  0
  8  9  1  0
  9 10  1  0
 10 11  1  0
 11 12  1  0
 12 13  1  0
  2 14  1  0
 14 15  1  0
 15 16  1  0
 16 17  1  0
 17 18  2  0
 18 19  1  0
 19 20  1  0
 20 21  1  0
 21 22  1  0
 22 23  1  0
 23 24  1  0
 19 25  1  0
 13  9  1  0
 25 16  2  0
 24 20  1  0
  1 26  1  0
  1 27  1  0
  1 28  1  0
  2 29  1  0
  3 30  1  0
  3 31  1  0
  5 32  1  0
  5 33  1  0
  5 34  1  0
  8 35  1  0
  8 36  1  0
 10 37  1  0
 10 38  1  0
 11 39  1  0
 11 40  1  0
 12 41  1  0
 12 42  1  0
 13 43  1  0
 13 44  1  0
 14 45  1  0
 15 46  1  0
 15 47  1  0
 17 48  1  0
 18 49  1  0
 20 50  1  0
 21 51  1  0
 21 52  1  0
 22 53  1  0
 22 54  1  0
 23 55  1  0
 23 56  1  0
 24 57  1  0
 24 58  1  0
M  END
>  <Energy>  (235) 
640.56135934301585

>  <compound_id>  (235) 
8746

>  <target_id>  (235) 
1

>  <reference_id>  (235) 
99

>  <inspiration_ids>  (235) 
[123, 99]

>  <energy_score>  (235) 
509.9062242228814

>  <distance_score>  (235) 
13.429089010433914

>  <path>  (235) 
/opt/xchem-fragalysis-2/maxwin/BulkDock/SCRATCH/511015/C8746-P99/C8746-P99.minimised.mol

>  <scratch_subdir>  (235) 
/opt/xchem-fragalysis-2/maxwin/BulkDock/SCRATCH/511015/C8746-P99

>  <fragmenstein_runtime>  (235) 
57.002819538116455

>  <fragmenstein_outcome>  (235) 
too moved

>  <fragmenstein_mode>  (235) 
expansion

>  <fragmenstein_error>  (235) 


$$$$
C8747-P123
     RDKit          3D

 58 60  0  0  0  0  0  0  0  0999 V2000
   -4.3651  -14.5091   15.9983 C   0  0  0  0  0  0  0  0  0  0  0  0
   -5.6807  -14.1323   15.2694 C   0  0  0  0  0  0  0  0  0  0  0  0
   -6.5376  -15.3607   14.7359 C   0  0  0  0  0  0  0  0  0  0  0  0
   -6.9956  -16.3722   15.7365 N   0  0  0  0  0  0  0  0  0  0  0  0
   -6.0708  -17.5248   15.9979 C   0  0  0  0  0  0  0  0  0  0  0  0
   -6.3789  -18.4730   17.2168 C   0  0  0  0  0  0  0  0  0  0  0  0
   -5.7962  -18.4404   18.5225 C   0  0  0  0  0  0  0  0  0  0  0  0
   -6.2156  -19.5725   19.1836 C   0  0  0  0  0  0  0  0  0  0  0  0
   -6.9718  -20.2606   18.2824 N   0  0  0  0  0  0  0  0  0  0  0  0
   -7.5411  -21.5885   18.4197 C   0  0  0  0  0  0  0  0  0  0  0  0
   -8.9984  -21.7149   17.9293 C   0  0  0  0  0  0  0  0  0  0  0  0
   -9.7358  -22.5500   18.9746 C   0  0  0  0  0  0  0  0  0  0  0  0
   -8.6419  -23.2341   19.7753 C   0  0  0  0  0  0  0  0  0  0  0  0
   -7.5557  -22.1742   19.8379 C   0  0  0  0  0  0  0  0  0  0  0  0
   -7.0694  -19.6241   17.0797 N   0  0  0  0  0  0  0  0  0  0  0  0
   -5.7724  -12.7722   14.4940 N   0  0  0  0  0  0  0  0  0  0  0  0
   -4.7291  -13.4283   13.6430 C   0  0  0  0  0  0  0  0  0  0  0  0
   -5.3384  -11.4357   14.8715 C   0  0  0  0  0  0  0  0  0  0  0  0
   -4.7199  -11.0576   15.8335 O   0  0  0  0  0  0  0  0  0  0  0  0
   -5.7675  -10.4300   13.7485 C   0  0  0  0  0  0  0  0  0  0  0  0
   -5.4718   -9.0144   14.0776 N   0  0  0  0  0  0  0  0  0  0  0  0
   -6.4596   -8.4170   14.9775 C   0  0  0  0  0  0  0  0  0  0  0  0
   -6.2131   -6.9178   14.8567 C   0  0  0  0  0  0  0  0  0  0  0  0
   -5.4288   -6.7587   13.5669 C   0  0  0  0  0  0  0  0  0  0  0  0
   -5.4388   -8.1337   12.9128 C   0  0  0  0  0  0  0  0  0  0  0  0
   -4.5687  -15.1393   16.8656 H   0  0  0  0  0  0  0  0  0  0  0  0
   -3.8424  -13.6199   16.3649 H   0  0  0  0  0  0  0  0  0  0  0  0
   -3.6863  -15.0768   15.3528 H   0  0  0  0  0  0  0  0  0  0  0  0
   -6.2952  -13.8088   16.1243 H   0  0  0  0  0  0  0  0  0  0  0  0
   -7.4476  -14.9440   14.2869 H   0  0  0  0  0  0  0  0  0  0  0  0
   -6.0224  -15.8959   13.9320 H   0  0  0  0  0  0  0  0  0  0  0  0
   -7.2747  -15.9300   16.6063 H   0  0  0  0  0  0  0  0  0  0  0  0
   -5.0512  -17.1581   16.1481 H   0  0  0  0  0  0  0  0  0  0  0  0
   -6.0546  -18.1522   15.0980 H   0  0  0  0  0  0  0  0  0  0  0  0
   -5.1118  -17.7071   18.9126 H   0  0  0  0  0  0  0  0  0  0  0  0
   -6.0105  -19.9344   20.1805 H   0  0  0  0  0  0  0  0  0  0  0  0
   -6.9104  -22.2326   17.7903 H   0  0  0  0  0  0  0  0  0  0  0  0
   -9.5028  -20.7537   17.7902 H   0  0  0  0  0  0  0  0  0  0  0  0
   -9.0140  -22.2266   16.9594 H   0  0  0  0  0  0  0  0  0  0  0  0
  -10.3189  -21.8904   19.6283 H   0  0  0  0  0  0  0  0  0  0  0  0
  -10.4276  -23.2653   18.5203 H   0  0  0  0  0  0  0  0  0  0  0  0
   -8.9831  -23.5408   20.7680 H   0  0  0  0  0  0  0  0  0  0  0  0
   -8.2791  -24.1222   19.2448 H   0  0  0  0  0  0  0  0  0  0  0  0
   -7.8233  -21.4193   20.5854 H   0  0  0  0  0  0  0  0  0  0  0  0
   -6.5859  -22.5968   20.1195 H   0  0  0  0  0  0  0  0  0  0  0  0
   -4.6707  -12.7901   12.7487 H   0  0  0  0  0  0  0  0  0  0  0  0
   -3.7115  -13.3336   14.0443 H   0  0  0  0  0  0  0  0  0  0  0  0
   -4.9528  -14.3962   13.1866 H   0  0  0  0  0  0  0  0  0  0  0  0
   -6.8297  -10.5760   13.5217 H   0  0  0  0  0  0  0  0  0  0  0  0
   -5.1789  -10.6947   12.8638 H   0  0  0  0  0  0  0  0  0  0  0  0
   -7.4849   -8.6463   14.6617 H   0  0  0  0  0  0  0  0  0  0  0  0
   -6.3361   -8.7574   16.0104 H   0  0  0  0  0  0  0  0  0  0  0  0
   -7.1485   -6.3517   14.8476 H   0  0  0  0  0  0  0  0  0  0  0  0
   -5.6207   -6.5513   15.7036 H   0  0  0  0  0  0  0  0  0  0  0  0
   -5.8320   -5.9844   12.9151 H   0  0  0  0  0  0  0  0  0  0  0  0
   -4.4183   -6.4708   13.8629 H   0  0  0  0  0  0  0  0  0  0  0  0
   -4.5515   -8.3050   12.2992 H   0  0  0  0  0  0  0  0  0  0  0  0
   -6.3272   -8.2662   12.2887 H   0  0  0  0  0  0  0  0  0  0  0  0
  1  2  1  0
  2  3  1  0
  3  4  1  0
  4  5  1  0
  5  6  1  0
  6  7  1  0
  7  8  2  0
  8  9  1  0
  9 10  1  0
 10 11  1  0
 11 12  1  0
 12 13  1  0
 13 14  1  0
  9 15  1  0
  2 16  1  0
 16 17  1  0
 16 18  1  0
 18 19  2  0
 18 20  1  0
 20 21  1  0
 21 22  1  0
 22 23  1  0
 23 24  1  0
 24 25  1  0
 15  6  2  0
 25 21  1  0
 14 10  1  0
  1 26  1  0
  1 27  1  0
  1 28  1  0
  2 29  1  0
  3 30  1  0
  3 31  1  0
  4 32  1  0
  5 33  1  0
  5 34  1  0
  7 35  1  0
  8 36  1  0
 10 37  1  0
 11 38  1  0
 11 39  1  0
 12 40  1  0
 12 41  1  0
 13 42  1  0
 13 43  1  0
 14 44  1  0
 14 45  1  0
 17 46  1  0
 17 47  1  0
 17 48  1  0
 20 49  1  0
 20 50  1  0
 22 51  1  0
 22 52  1  0
 23 53  1  0
 23 54  1  0
 24 55  1  0
 24 56  1  0
 25 57  1  0
 25 58  1  0
M  END
>  <Energy>  (236) 
187.37652817423498

>  <compound_id>  (236) 
8747

>  <target_id>  (236) 
1

>  <reference_id>  (236) 
123

>  <inspiration_ids>  (236) 
[123, 99]

>  <energy_score>  (236) 
44.77465495722004

>  <distance_score>  (236) 
13.332204318686323

>  <path>  (236) 
/opt/xchem-fragalysis-2/maxwin/BulkDock/SCRATCH/511015/C8747-P123/C8747-P123.minimised.mol

>  <scratch_subdir>  (236) 
/opt/xchem-fragalysis-2/maxwin/BulkDock/SCRATCH/511015/C8747-P123

>  <fragmenstein_runtime>  (236) 
41.12916088104248

>  <fragmenstein_outcome>  (236) 
too moved

>  <fragmenstein_mode>  (236) 
expansion

>  <fragmenstein_error>  (236) 


$$$$
C8747-P99
     RDKit          3D

 58 60  0  0  0  0  0  0  0  0999 V2000
  -11.8110   -6.3070   20.7429 C   0  0  0  0  0  0  0  0  0  0  0  0
  -10.3387   -6.4784   20.2774 C   0  0  0  0  0  0  0  0  0  0  0  0
   -9.4721   -6.5715   21.6047 C   0  0  0  0  0  0  0  0  0  0  0  0
   -9.6829   -7.8167   22.4127 N   0  0  0  0  0  0  0  0  0  0  0  0
   -9.0960   -7.7341   23.7958 C   0  0  0  0  0  0  0  0  0  0  0  0
   -9.2185   -9.0011   24.7073 C   0  0  0  0  0  0  0  0  0  0  0  0
   -8.1749   -9.5510   25.5128 C   0  0  0  0  0  0  0  0  0  0  0  0
   -8.7703  -10.4520   26.3659 C   0  0  0  0  0  0  0  0  0  0  0  0
  -10.0906  -10.4663   26.0301 N   0  0  0  0  0  0  0  0  0  0  0  0
  -11.1742  -11.2100   26.6591 C   0  0  0  0  0  0  0  0  0  0  0  0
  -12.0773  -10.3077   27.5059 C   0  0  0  0  0  0  0  0  0  0  0  0
  -11.3766  -10.2346   28.8556 C   0  0  0  0  0  0  0  0  0  0  0  0
  -10.7036  -11.5908   29.0363 C   0  0  0  0  0  0  0  0  0  0  0  0
  -10.7517  -12.2824   27.6729 C   0  0  0  0  0  0  0  0  0  0  0  0
  -10.3826   -9.6014   25.0173 N   0  0  0  0  0  0  0  0  0  0  0  0
   -9.8551   -5.2248   19.4839 N   0  0  0  0  0  0  0  0  0  0  0  0
  -10.3625   -6.0323   18.3165 C   0  0  0  0  0  0  0  0  0  0  0  0
   -8.5286   -4.7429   19.2081 C   0  0  0  0  0  0  0  0  0  0  0  0
   -7.4525   -5.2335   19.4428 O   0  0  0  0  0  0  0  0  0  0  0  0
   -8.6085   -3.3504   18.5271 C   0  0  0  0  0  0  0  0  0  0  0  0
   -8.4930   -3.4217   17.0526 N   0  0  0  0  0  0  0  0  0  0  0  0
   -8.5479   -2.0804   16.4554 C   0  0  0  0  0  0  0  0  0  0  0  0
   -7.8860   -2.2391   15.0987 C   0  0  0  0  0  0  0  0  0  0  0  0
   -7.2510   -3.6225   15.1251 C   0  0  0  0  0  0  0  0  0  0  0  0
   -7.2266   -3.9924   16.5908 C   0  0  0  0  0  0  0  0  0  0  0  0
  -12.1679   -7.2078   21.2518 H   0  0  0  0  0  0  0  0  0  0  0  0
  -12.5134   -6.1056   19.9302 H   0  0  0  0  0  0  0  0  0  0  0  0
  -11.8995   -5.4657   21.4400 H   0  0  0  0  0  0  0  0  0  0  0  0
  -10.1519   -7.4552   19.8061 H   0  0  0  0  0  0  0  0  0  0  0  0
   -8.4087   -6.5316   21.3499 H   0  0  0  0  0  0  0  0  0  0  0  0
   -9.6834   -5.6918   22.2263 H   0  0  0  0  0  0  0  0  0  0  0  0
  -10.6845   -7.9713   22.5687 H   0  0  0  0  0  0  0  0  0  0  0  0
   -8.0283   -7.5011   23.7016 H   0  0  0  0  0  0  0  0  0  0  0  0
   -9.5741   -6.9071   24.3355 H   0  0  0  0  0  0  0  0  0  0  0  0
   -7.1347   -9.2575   25.5186 H   0  0  0  0  0  0  0  0  0  0  0  0
   -8.3557  -11.0516   27.1626 H   0  0  0  0  0  0  0  0  0  0  0  0
  -11.7295  -11.6731   25.8352 H   0  0  0  0  0  0  0  0  0  0  0  0
  -13.0589  -10.7819   27.6300 H   0  0  0  0  0  0  0  0  0  0  0  0
  -12.2364   -9.3110   27.0833 H   0  0  0  0  0  0  0  0  0  0  0  0
  -10.6186   -9.4425   28.8443 H   0  0  0  0  0  0  0  0  0  0  0  0
  -12.0745  -10.0099   29.6678 H   0  0  0  0  0  0  0  0  0  0  0  0
   -9.6721  -11.4633   29.3819 H   0  0  0  0  0  0  0  0  0  0  0  0
  -11.2256  -12.1940   29.7872 H   0  0  0  0  0  0  0  0  0  0  0  0
  -11.5194  -13.0625   27.7079 H   0  0  0  0  0  0  0  0  0  0  0  0
   -9.8103  -12.7853   27.4383 H   0  0  0  0  0  0  0  0  0  0  0  0
   -9.6535   -6.8193   18.0130 H   0  0  0  0  0  0  0  0  0  0  0  0
  -10.3415   -5.3399   17.4634 H   0  0  0  0  0  0  0  0  0  0  0  0
  -11.4060   -6.3642   18.3178 H   0  0  0  0  0  0  0  0  0  0  0  0
   -9.5655   -2.8854   18.7948 H   0  0  0  0  0  0  0  0  0  0  0  0
   -7.8177   -2.7276   18.9652 H   0  0  0  0  0  0  0  0  0  0  0  0
   -7.9875   -1.3456   17.0477 H   0  0  0  0  0  0  0  0  0  0  0  0
   -9.5805   -1.7288   16.3629 H   0  0  0  0  0  0  0  0  0  0  0  0
   -8.6241   -2.1651   14.2952 H   0  0  0  0  0  0  0  0  0  0  0  0
   -7.1325   -1.4572   14.9569 H   0  0  0  0  0  0  0  0  0  0  0  0
   -7.8791   -4.3290   14.5681 H   0  0  0  0  0  0  0  0  0  0  0  0
   -6.2508   -3.6450   14.6940 H   0  0  0  0  0  0  0  0  0  0  0  0
   -7.1823   -5.0779   16.7205 H   0  0  0  0  0  0  0  0  0  0  0  0
   -6.3632   -3.5345   17.0899 H   0  0  0  0  0  0  0  0  0  0  0  0
  1  2  1  0
  2  3  1  0
  3  4  1  0
  4  5  1  0
  5  6  1  0
  6  7  1  0
  7  8  2  0
  8  9  1  0
  9 10  1  0
 10 11  1  0
 11 12  1  0
 12 13  1  0
 13 14  1  0
  9 15  1  0
  2 16  1  0
 16 17  1  0
 16 18  1  0
 18 19  2  0
 18 20  1  0
 20 21  1  0
 21 22  1  0
 22 23  1  0
 23 24  1  0
 24 25  1  0
 15  6  2  0
 25 21  1  0
 14 10  1  0
  1 26  1  0
  1 27  1  0
  1 28  1  0
  2 29  1  0
  3 30  1  0
  3 31  1  0
  4 32  1  0
  5 33  1  0
  5 34  1  0
  7 35  1  0
  8 36  1  0
 10 37  1  0
 11 38  1  0
 11 39  1  0
 12 40  1  0
 12 41  1  0
 13 42  1  0
 13 43  1  0
 14 44  1  0
 14 45  1  0
 17 46  1  0
 17 47  1  0
 17 48  1  0
 20 49  1  0
 20 50  1  0
 22 51  1  0
 22 52  1  0
 23 53  1  0
 23 54  1  0
 24 55  1  0
 24 56  1  0
 25 57  1  0
 25 58  1  0
M  END
>  <Energy>  (237) 
167.16050853087256

>  <compound_id>  (237) 
8747

>  <target_id>  (237) 
1

>  <reference_id>  (237) 
99

>  <inspiration_ids>  (237) 
[123, 99]

>  <energy_score>  (237) 
24.558635313859554

>  <distance_score>  (237) 
13.651495312580185

>  <path>  (237) 
/opt/xchem-fragalysis-2/maxwin/BulkDock/SCRATCH/511015/C8747-P99/C8747-P99.minimised.mol

>  <scratch_subdir>  (237) 
/opt/xchem-fragalysis-2/maxwin/BulkDock/SCRATCH/511015/C8747-P99

>  <fragmenstein_runtime>  (237) 
54.96472954750061

>  <fragmenstein_outcome>  (237) 
too moved

>  <fragmenstein_mode>  (237) 
expansion

>  <fragmenstein_error>  (237) 


$$$$
C8748-P123
     RDKit          3D

 54 56  0  0  0  0  0  0  0  0999 V2000
   -3.8477   -8.5450   12.9310 C   0  0  0  0  0  0  0  0  0  0  0  0
   -5.0938   -8.8486   12.1066 C   0  0  0  0  0  0  0  0  0  0  0  0
   -6.2483   -9.1644   13.1643 C   0  0  0  0  0  0  0  0  0  0  0  0
   -6.2355  -10.4815   13.8482 N   0  0  0  0  0  0  0  0  0  0  0  0
   -5.4836  -10.9492   14.9875 C   0  0  0  0  0  0  0  0  0  0  0  0
   -4.6195  -10.4183   15.6234 O   0  0  0  0  0  0  0  0  0  0  0  0
   -5.8750  -12.3583   15.3954 C   0  0  0  0  0  0  0  0  0  0  0  0
   -5.0345  -13.3053   16.0618 C   0  0  0  0  0  0  0  0  0  0  0  0
   -5.7345  -14.4870   16.0839 C   0  0  0  0  0  0  0  0  0  0  0  0
   -6.9837  -14.1875   15.6318 N   0  0  0  0  0  0  0  0  0  0  0  0
   -8.1297  -15.0726   15.5647 C   0  0  0  0  0  0  0  0  0  0  0  0
   -7.8097  -16.5696   15.5187 C   0  0  0  0  0  0  0  0  0  0  0  0
   -9.1287  -17.1969   15.0995 C   0  0  0  0  0  0  0  0  0  0  0  0
   -9.7324  -16.2123   14.1050 C   0  0  0  0  0  0  0  0  0  0  0  0
   -9.0026  -14.8850   14.3155 C   0  0  0  0  0  0  0  0  0  0  0  0
   -7.0930  -12.9077   15.1832 N   0  0  0  0  0  0  0  0  0  0  0  0
   -5.5625   -7.8533   11.0343 N   0  0  0  0  0  0  0  0  0  0  0  0
   -5.6329   -6.3876   11.0459 C   0  0  0  0  0  0  0  0  0  0  0  0
   -5.2622   -5.5999   11.8694 O   0  0  0  0  0  0  0  0  0  0  0  0
   -6.6299   -5.7062    9.4958 C   0  0  0  0  0  0  0  0  0  0  0  0
   -6.9532   -4.7028    8.0581 N   0  0  0  0  0  0  0  0  0  0  0  0
   -8.3612   -4.4109    7.7496 C   0  0  0  0  0  0  0  0  0  0  0  0
   -8.3875   -3.3577    6.6451 C   0  0  0  0  0  0  0  0  0  0  0  0
   -7.0026   -3.4320    6.0535 C   0  0  0  0  0  0  0  0  0  0  0  0
   -6.1730   -3.6520    7.3043 C   0  0  0  0  0  0  0  0  0  0  0  0
   -3.9949   -7.6706   13.5704 H   0  0  0  0  0  0  0  0  0  0  0  0
   -2.9452   -8.4326   12.3364 H   0  0  0  0  0  0  0  0  0  0  0  0
   -3.6185   -9.3836   13.5941 H   0  0  0  0  0  0  0  0  0  0  0  0
   -4.8718   -9.7608   11.5441 H   0  0  0  0  0  0  0  0  0  0  0  0
   -7.2215   -9.1072   12.6702 H   0  0  0  0  0  0  0  0  0  0  0  0
   -6.2446   -8.3968   13.9472 H   0  0  0  0  0  0  0  0  0  0  0  0
   -6.9503  -11.1698   13.6177 H   0  0  0  0  0  0  0  0  0  0  0  0
   -4.0113  -13.1466   16.3740 H   0  0  0  0  0  0  0  0  0  0  0  0
   -5.4501  -15.4794   16.4011 H   0  0  0  0  0  0  0  0  0  0  0  0
   -8.7164  -14.8539   16.4644 H   0  0  0  0  0  0  0  0  0  0  0  0
   -7.0359  -16.7862   14.7714 H   0  0  0  0  0  0  0  0  0  0  0  0
   -7.4673  -16.9576   16.4831 H   0  0  0  0  0  0  0  0  0  0  0  0
   -9.7880  -17.2980   15.9695 H   0  0  0  0  0  0  0  0  0  0  0  0
   -8.9953  -18.1929   14.6670 H   0  0  0  0  0  0  0  0  0  0  0  0
   -9.5877  -16.5607   13.0763 H   0  0  0  0  0  0  0  0  0  0  0  0
  -10.8107  -16.1084   14.2650 H   0  0  0  0  0  0  0  0  0  0  0  0
   -9.7068  -14.0545   14.4359 H   0  0  0  0  0  0  0  0  0  0  0  0
   -8.3900  -14.6650   13.4319 H   0  0  0  0  0  0  0  0  0  0  0  0
   -5.8937   -8.1892   10.1502 H   0  0  0  0  0  0  0  0  0  0  0  0
   -7.3254   -5.0720    9.9872 H   0  0  0  0  0  0  0  0  0  0  0  0
   -6.9856   -6.7134    9.2738 H   0  0  0  0  0  0  0  0  0  0  0  0
   -8.8299   -5.3000    7.3298 H   0  0  0  0  0  0  0  0  0  0  0  0
   -8.9135   -4.0539    8.6166 H   0  0  0  0  0  0  0  0  0  0  0  0
   -8.5627   -2.3647    7.0769 H   0  0  0  0  0  0  0  0  0  0  0  0
   -9.1673   -3.5497    5.9020 H   0  0  0  0  0  0  0  0  0  0  0  0
   -6.9093   -4.2774    5.3638 H   0  0  0  0  0  0  0  0  0  0  0  0
   -6.7308   -2.5153    5.5222 H   0  0  0  0  0  0  0  0  0  0  0  0
   -5.1417   -3.8635    7.0179 H   0  0  0  0  0  0  0  0  0  0  0  0
   -6.1534   -2.6634    7.7852 H   0  0  0  0  0  0  0  0  0  0  0  0
  1  2  1  0
  2  3  1  0
  3  4  1  0
  4  5  1  0
  5  6  2  0
  5  7  1  0
  7  8  1  0
  8  9  2  0
  9 10  1  0
 10 11  1  0
 11 12  1  0
 12 13  1  0
 13 14  1  0
 14 15  1  0
 10 16  1  0
  2 17  1  0
 17 18  1  0
 18 19  2  0
 18 20  1  0
 20 21  1  0
 21 22  1  0
 22 23  1  0
 23 24  1  0
 24 25  1  0
 16  7  2  0
 25 21  1  0
 15 11  1  0
  1 26  1  0
  1 27  1  0
  1 28  1  0
  2 29  1  0
  3 30  1  0
  3 31  1  0
  4 32  1  0
  8 33  1  0
  9 34  1  0
 11 35  1  0
 12 36  1  0
 12 37  1  0
 13 38  1  0
 13 39  1  0
 14 40  1  0
 14 41  1  0
 15 42  1  0
 15 43  1  0
 17 44  1  0
 20 45  1  0
 20 46  1  0
 22 47  1  0
 22 48  1  0
 23 49  1  0
 23 50  1  0
 24 51  1  0
 24 52  1  0
 25 53  1  0
 25 54  1  0
M  END
>  <Energy>  (238) 
254.55121053292405

>  <compound_id>  (238) 
8748

>  <target_id>  (238) 
1

>  <reference_id>  (238) 
123

>  <inspiration_ids>  (238) 
[123, 99]

>  <energy_score>  (238) 
141.742993066621

>  <distance_score>  (238) 
13.010291650072718

>  <path>  (238) 
/opt/xchem-fragalysis-2/maxwin/BulkDock/SCRATCH/511015/C8748-P123/C8748-P123.minimised.mol

>  <scratch_subdir>  (238) 
/opt/xchem-fragalysis-2/maxwin/BulkDock/SCRATCH/511015/C8748-P123

>  <fragmenstein_runtime>  (238) 
69.00900435447693

>  <fragmenstein_outcome>  (238) 
too moved

>  <fragmenstein_mode>  (238) 
expansion

>  <fragmenstein_error>  (238) 


$$$$
C8748-P99
     RDKit          3D

 54 56  0  0  0  0  0  0  0  0999 V2000
   -8.7180  -15.9203   16.3495 C   0  0  0  0  0  0  0  0  0  0  0  0
   -8.4966  -14.7462   17.3347 C   0  0  0  0  0  0  0  0  0  0  0  0
   -8.7734  -15.1219   19.0907 C   0  0  0  0  0  0  0  0  0  0  0  0
   -7.7588  -16.1833   20.2538 N   0  0  0  0  0  0  0  0  0  0  0  0
   -6.5638  -17.3990   19.9203 C   0  0  0  0  0  0  0  0  0  0  0  0
   -6.1349  -17.7642   18.8353 O   0  0  0  0  0  0  0  0  0  0  0  0
   -6.0350  -18.2140   21.1028 C   0  0  0  0  0  0  0  0  0  0  0  0
   -6.7449  -18.8237   22.1650 C   0  0  0  0  0  0  0  0  0  0  0  0
   -5.8733  -19.6130   22.8736 C   0  0  0  0  0  0  0  0  0  0  0  0
   -4.6782  -19.4227   22.2619 N   0  0  0  0  0  0  0  0  0  0  0  0
   -3.4061  -20.0047   22.6574 C   0  0  0  0  0  0  0  0  0  0  0  0
   -2.8366  -20.9707   21.6037 C   0  0  0  0  0  0  0  0  0  0  0  0
   -1.3727  -20.5787   21.4437 C   0  0  0  0  0  0  0  0  0  0  0  0
   -1.3624  -19.0865   21.7265 C   0  0  0  0  0  0  0  0  0  0  0  0
   -2.3145  -18.9509   22.9065 C   0  0  0  0  0  0  0  0  0  0  0  0
   -4.7487  -18.6271   21.1757 N   0  0  0  0  0  0  0  0  0  0  0  0
   -8.8236  -13.3701   16.8939 N   0  0  0  0  0  0  0  0  0  0  0  0
   -8.6034  -12.6974   15.6137 C   0  0  0  0  0  0  0  0  0  0  0  0
   -8.1755  -13.1178   14.5726 O   0  0  0  0  0  0  0  0  0  0  0  0
   -8.8952  -11.1377   15.6934 C   0  0  0  0  0  0  0  0  0  0  0  0
   -7.7063  -10.3050   15.3188 N   0  0  0  0  0  0  0  0  0  0  0  0
   -7.8650   -8.8716   15.5888 C   0  0  0  0  0  0  0  0  0  0  0  0
   -6.6274   -8.2760   14.9232 C   0  0  0  0  0  0  0  0  0  0  0  0
   -6.3946   -9.1579   13.7035 C   0  0  0  0  0  0  0  0  0  0  0  0
   -7.3448  -10.3469   13.8910 C   0  0  0  0  0  0  0  0  0  0  0  0
   -7.7786  -16.4678   16.1988 H   0  0  0  0  0  0  0  0  0  0  0  0
   -9.0493  -15.5721   15.3662 H   0  0  0  0  0  0  0  0  0  0  0  0
   -9.4236  -16.6681   16.7108 H   0  0  0  0  0  0  0  0  0  0  0  0
   -7.4461  -14.6031   17.0890 H   0  0  0  0  0  0  0  0  0  0  0  0
   -8.7064  -14.1281   19.5437 H   0  0  0  0  0  0  0  0  0  0  0  0
   -9.7469  -15.5642   19.0784 H   0  0  0  0  0  0  0  0  0  0  0  0
   -7.9536  -16.1700   21.2225 H   0  0  0  0  0  0  0  0  0  0  0  0
   -7.7799  -18.7125   22.3575 H   0  0  0  0  0  0  0  0  0  0  0  0
   -5.9968  -20.2585   23.7290 H   0  0  0  0  0  0  0  0  0  0  0  0
   -3.5916  -20.5472   23.5932 H   0  0  0  0  0  0  0  0  0  0  0  0
   -2.9320  -22.0140   21.9230 H   0  0  0  0  0  0  0  0  0  0  0  0
   -3.3527  -20.8810   20.6405 H   0  0  0  0  0  0  0  0  0  0  0  0
   -0.9862  -20.8178   20.4489 H   0  0  0  0  0  0  0  0  0  0  0  0
   -0.7597  -21.1074   22.1834 H   0  0  0  0  0  0  0  0  0  0  0  0
   -1.7439  -18.5316   20.8616 H   0  0  0  0  0  0  0  0  0  0  0  0
   -0.3604  -18.7141   21.9579 H   0  0  0  0  0  0  0  0  0  0  0  0
   -1.7773  -19.2002   23.8303 H   0  0  0  0  0  0  0  0  0  0  0  0
   -2.6946  -17.9298   23.0130 H   0  0  0  0  0  0  0  0  0  0  0  0
   -9.1189  -12.6870   17.5804 H   0  0  0  0  0  0  0  0  0  0  0  0
   -9.1854  -10.8821   16.7181 H   0  0  0  0  0  0  0  0  0  0  0  0
   -9.7507  -10.9219   15.0426 H   0  0  0  0  0  0  0  0  0  0  0  0
   -8.7822   -8.4764   15.1368 H   0  0  0  0  0  0  0  0  0  0  0  0
   -7.8798   -8.6570   16.6619 H   0  0  0  0  0  0  0  0  0  0  0  0
   -6.7441   -7.2190   14.6731 H   0  0  0  0  0  0  0  0  0  0  0  0
   -5.7659   -8.3558   15.5985 H   0  0  0  0  0  0  0  0  0  0  0  0
   -6.6010   -8.6307   12.7688 H   0  0  0  0  0  0  0  0  0  0  0  0
   -5.3503   -9.4887   13.6750 H   0  0  0  0  0  0  0  0  0  0  0  0
   -8.2298  -10.2181   13.2565 H   0  0  0  0  0  0  0  0  0  0  0  0
   -6.8429  -11.2777   13.6138 H   0  0  0  0  0  0  0  0  0  0  0  0
  1  2  1  0
  2  3  1  0
  3  4  1  0
  4  5  1  0
  5  6  2  0
  5  7  1  0
  7  8  1  0
  8  9  2  0
  9 10  1  0
 10 11  1  0
 11 12  1  0
 12 13  1  0
 13 14  1  0
 14 15  1  0
 10 16  1  0
  2 17  1  0
 17 18  1  0
 18 19  2  0
 18 20  1  0
 20 21  1  0
 21 22  1  0
 22 23  1  0
 23 24  1  0
 24 25  1  0
 16  7  2  0
 25 21  1  0
 15 11  1  0
  1 26  1  0
  1 27  1  0
  1 28  1  0
  2 29  1  0
  3 30  1  0
  3 31  1  0
  4 32  1  0
  8 33  1  0
  9 34  1  0
 11 35  1  0
 12 36  1  0
 12 37  1  0
 13 38  1  0
 13 39  1  0
 14 40  1  0
 14 41  1  0
 15 42  1  0
 15 43  1  0
 17 44  1  0
 20 45  1  0
 20 46  1  0
 22 47  1  0
 22 48  1  0
 23 49  1  0
 23 50  1  0
 24 51  1  0
 24 52  1  0
 25 53  1  0
 25 54  1  0
M  END
>  <Energy>  (239) 
223.00337138245547

>  <compound_id>  (239) 
8748

>  <target_id>  (239) 
1

>  <reference_id>  (239) 
99

>  <inspiration_ids>  (239) 
[123, 99]

>  <energy_score>  (239) 
110.19515391614027

>  <distance_score>  (239) 
13.386249814165463

>  <path>  (239) 
/opt/xchem-fragalysis-2/maxwin/BulkDock/SCRATCH/511015/C8748-P99/C8748-P99.minimised.mol

>  <scratch_subdir>  (239) 
/opt/xchem-fragalysis-2/maxwin/BulkDock/SCRATCH/511015/C8748-P99

>  <fragmenstein_runtime>  (239) 
79.26786589622498

>  <fragmenstein_outcome>  (239) 
too moved

>  <fragmenstein_mode>  (239) 
expansion

>  <fragmenstein_error>  (239) 


$$$$
C8750-P123
     RDKit          3D

 50 52  0  0  0  0  0  0  0  0999 V2000
   -9.2920   -5.5286    8.1704 C   0  0  0  0  0  0  0  0  0  0  0  0
   -8.9574   -7.7108    8.1540 C   0  0  0  0  0  0  0  0  0  0  0  0
  -10.0125   -9.1488    7.4728 C   0  0  0  0  0  0  0  0  0  0  0  0
   -8.9428   -8.9602    9.9907 C   0  0  0  0  0  0  0  0  0  0  0  0
   -9.8690  -10.0975   11.4730 N   0  0  0  0  0  0  0  0  0  0  0  0
   -9.4646  -10.4124   13.3858 C   0  0  0  0  0  0  0  0  0  0  0  0
   -8.5542   -9.7429   13.7386 O   0  0  0  0  0  0  0  0  0  0  0  0
  -10.0811  -11.5724   14.9585 C   0  0  0  0  0  0  0  0  0  0  0  0
  -11.3691  -11.4456   16.3459 C   0  0  0  0  0  0  0  0  0  0  0  0
  -11.0942  -11.7085   17.8239 C   0  0  0  0  0  0  0  0  0  0  0  0
  -10.5685  -13.0045   17.8797 N   0  0  0  0  0  0  0  0  0  0  0  0
  -10.6474  -14.6729   19.1127 C   0  0  0  0  0  0  0  0  0  0  0  0
  -11.8003  -15.1900   20.8792 C   0  0  0  0  0  0  0  0  0  0  0  0
  -13.2893  -16.0232   21.4535 C   0  0  0  0  0  0  0  0  0  0  0  0
  -13.9362  -16.5009   20.2771 C   0  0  0  0  0  0  0  0  0  0  0  0
  -12.5103  -15.6896   19.3485 C   0  0  0  0  0  0  0  0  0  0  0  0
  -10.9380  -12.7384   16.0047 N   0  0  0  0  0  0  0  0  0  0  0  0
   -9.0400   -6.0725    7.0047 N   0  0  0  0  0  0  0  0  0  0  0  0
   -9.8852   -5.4962    5.8045 C   0  0  0  0  0  0  0  0  0  0  0  0
   -9.2793   -4.1668    5.2228 C   0  0  0  0  0  0  0  0  0  0  0  0
   -7.8963   -3.9990    5.7677 C   0  0  0  0  0  0  0  0  0  0  0  0
   -7.6005   -5.2603    6.5662 C   0  0  0  0  0  0  0  0  0  0  0  0
   -9.8342   -5.1355    9.1037 H   0  0  0  0  0  0  0  0  0  0  0  0
   -8.3133   -4.9843    8.6364 H   0  0  0  0  0  0  0  0  0  0  0  0
   -9.4365   -4.4527    7.6181 H   0  0  0  0  0  0  0  0  0  0  0  0
   -9.5183  -10.1196    7.5418 H   0  0  0  0  0  0  0  0  0  0  0  0
  -10.3609   -8.9480    6.4585 H   0  0  0  0  0  0  0  0  0  0  0  0
  -10.8725   -9.3806    8.1143 H   0  0  0  0  0  0  0  0  0  0  0  0
   -8.7680   -9.8882    9.4233 H   0  0  0  0  0  0  0  0  0  0  0  0
   -7.9303   -8.8591   10.4218 H   0  0  0  0  0  0  0  0  0  0  0  0
  -10.5923  -10.7499   11.1990 H   0  0  0  0  0  0  0  0  0  0  0  0
  -12.3947  -11.0028   16.0755 H   0  0  0  0  0  0  0  0  0  0  0  0
  -11.7740  -11.2373   18.4547 H   0  0  0  0  0  0  0  0  0  0  0  0
   -9.7224  -15.2977   19.0002 H   0  0  0  0  0  0  0  0  0  0  0  0
  -11.5888  -14.0090   21.2214 H   0  0  0  0  0  0  0  0  0  0  0  0
  -11.4908  -15.5175   21.8861 H   0  0  0  0  0  0  0  0  0  0  0  0
  -14.0178  -15.4422   21.9120 H   0  0  0  0  0  0  0  0  0  0  0  0
  -13.2901  -16.4995   22.4086 H   0  0  0  0  0  0  0  0  0  0  0  0
  -14.3926  -17.5058   20.0265 H   0  0  0  0  0  0  0  0  0  0  0  0
  -15.0101  -16.2535   20.0827 H   0  0  0  0  0  0  0  0  0  0  0  0
  -13.2876  -15.3423   18.6432 H   0  0  0  0  0  0  0  0  0  0  0  0
  -13.0268  -14.9577   19.8254 H   0  0  0  0  0  0  0  0  0  0  0  0
  -10.1778   -6.2204    5.0510 H   0  0  0  0  0  0  0  0  0  0  0  0
  -10.7860   -4.9859    6.0980 H   0  0  0  0  0  0  0  0  0  0  0  0
   -9.8835   -3.3015    5.5326 H   0  0  0  0  0  0  0  0  0  0  0  0
   -9.3071   -4.1464    4.1281 H   0  0  0  0  0  0  0  0  0  0  0  0
   -7.8549   -3.1154    6.4163 H   0  0  0  0  0  0  0  0  0  0  0  0
   -7.1589   -3.8485    4.9721 H   0  0  0  0  0  0  0  0  0  0  0  0
   -6.9757   -5.8966    5.9691 H   0  0  0  0  0  0  0  0  0  0  0  0
   -7.0398   -4.8925    7.4225 H   0  0  0  0  0  0  0  0  0  0  0  0
  1  2  1  0
  2  3  1  0
  2  4  1  0
  4  5  1  0
  5  6  1  0
  6  7  2  0
  6  8  1  0
  8  9  1  0
  9 10  2  0
 10 11  1  0
 11 12  1  0
 12 13  1  0
 13 14  1  0
 14 15  1  0
 15 16  1  0
 11 17  1  0
  2 18  1  0
 18 19  1  0
 19 20  1  0
 20 21  1  0
 21 22  1  0
 17  8  2  0
 22 18  1  0
 16 12  1  0
  1 23  1  0
  1 24  1  0
  1 25  1  0
  3 26  1  0
  3 27  1  0
  3 28  1  0
  4 29  1  0
  4 30  1  0
  5 31  1  0
  9 32  1  0
 10 33  1  0
 12 34  1  0
 13 35  1  0
 13 36  1  0
 14 37  1  0
 14 38  1  0
 15 39  1  0
 15 40  1  0
 16 41  1  0
 16 42  1  0
 19 43  1  0
 19 44  1  0
 20 45  1  0
 20 46  1  0
 21 47  1  0
 21 48  1  0
 22 49  1  0
 22 50  1  0
M  END
>  <Energy>  (240) 
2409.185175474156

>  <compound_id>  (240) 
8750

>  <target_id>  (240) 
1

>  <reference_id>  (240) 
123

>  <inspiration_ids>  (240) 
[123, 99]

>  <energy_score>  (240) 
2292.2828468931625

>  <distance_score>  (240) 
10.167720703262962

>  <path>  (240) 
/opt/xchem-fragalysis-2/maxwin/BulkDock/SCRATCH/511015/C8750-P123/C8750-P123.minimised.mol

>  <scratch_subdir>  (240) 
/opt/xchem-fragalysis-2/maxwin/BulkDock/SCRATCH/511015/C8750-P123

>  <fragmenstein_runtime>  (240) 
85.66272330284119

>  <fragmenstein_outcome>  (240) 
too moved

>  <fragmenstein_mode>  (240) 
expansion

>  <fragmenstein_error>  (240) 


$$$$
C8750-P99
     RDKit          3D

 50 52  0  0  0  0  0  0  0  0999 V2000
   -6.6775   -7.7111    9.7116 C   0  0  0  0  0  0  0  0  0  0  0  0
   -7.4950   -7.8578    8.3340 C   0  0  0  0  0  0  0  0  0  0  0  0
   -8.8799   -8.8620    8.6493 C   0  0  0  0  0  0  0  0  0  0  0  0
   -6.4515   -9.4753    8.2703 C   0  0  0  0  0  0  0  0  0  0  0  0
   -7.1502  -10.5764    9.1439 N   0  0  0  0  0  0  0  0  0  0  0  0
   -7.1258  -10.8093   10.5513 C   0  0  0  0  0  0  0  0  0  0  0  0
   -6.4968  -10.2751   11.4192 O   0  0  0  0  0  0  0  0  0  0  0  0
   -8.1473  -11.8386   11.1111 C   0  0  0  0  0  0  0  0  0  0  0  0
   -8.3968  -11.6905   12.5028 C   0  0  0  0  0  0  0  0  0  0  0  0
   -9.1015  -12.7811   12.8764 C   0  0  0  0  0  0  0  0  0  0  0  0
   -9.6940  -13.3053   11.7411 N   0  0  0  0  0  0  0  0  0  0  0  0
  -10.4675  -14.5607   11.9069 C   0  0  0  0  0  0  0  0  0  0  0  0
  -10.7251  -15.5135   10.7440 C   0  0  0  0  0  0  0  0  0  0  0  0
  -11.4190  -16.6983   11.4411 C   0  0  0  0  0  0  0  0  0  0  0  0
  -12.3280  -16.0595   12.4827 C   0  0  0  0  0  0  0  0  0  0  0  0
  -11.8593  -14.6004   12.5793 C   0  0  0  0  0  0  0  0  0  0  0  0
   -9.0305  -12.7691   10.5895 N   0  0  0  0  0  0  0  0  0  0  0  0
   -7.8814   -6.0185    7.6046 N   0  0  0  0  0  0  0  0  0  0  0  0
   -9.0895   -5.5004    6.9186 C   0  0  0  0  0  0  0  0  0  0  0  0
   -9.1999   -4.0347    7.3351 C   0  0  0  0  0  0  0  0  0  0  0  0
   -7.8645   -3.5575    6.8863 C   0  0  0  0  0  0  0  0  0  0  0  0
   -7.0372   -4.8192    7.1501 C   0  0  0  0  0  0  0  0  0  0  0  0
   -5.6938   -8.1356    9.8932 H   0  0  0  0  0  0  0  0  0  0  0  0
   -6.4216   -6.6683    9.8385 H   0  0  0  0  0  0  0  0  0  0  0  0
   -7.1757   -8.2475   10.5145 H   0  0  0  0  0  0  0  0  0  0  0  0
   -9.1657   -8.9477    9.6925 H   0  0  0  0  0  0  0  0  0  0  0  0
   -8.8758   -9.9416    8.5506 H   0  0  0  0  0  0  0  0  0  0  0  0
   -9.5572   -8.9107    7.8143 H   0  0  0  0  0  0  0  0  0  0  0  0
   -6.1598   -9.8700    7.2950 H   0  0  0  0  0  0  0  0  0  0  0  0
   -5.5451   -9.5009    8.8173 H   0  0  0  0  0  0  0  0  0  0  0  0
   -7.7427  -11.2781    8.7038 H   0  0  0  0  0  0  0  0  0  0  0  0
   -7.9399  -10.9646   13.1573 H   0  0  0  0  0  0  0  0  0  0  0  0
   -9.2986  -13.2000   13.8538 H   0  0  0  0  0  0  0  0  0  0  0  0
   -9.8859  -15.0972   12.6664 H   0  0  0  0  0  0  0  0  0  0  0  0
   -9.8365  -15.8261   10.1913 H   0  0  0  0  0  0  0  0  0  0  0  0
  -11.4016  -15.0492   10.0148 H   0  0  0  0  0  0  0  0  0  0  0  0
  -10.6734  -17.3354   11.9315 H   0  0  0  0  0  0  0  0  0  0  0  0
  -11.9754  -17.3173   10.7310 H   0  0  0  0  0  0  0  0  0  0  0  0
  -12.2561  -16.5846   13.4368 H   0  0  0  0  0  0  0  0  0  0  0  0
  -13.3753  -16.0969   12.1643 H   0  0  0  0  0  0  0  0  0  0  0  0
  -12.5557  -13.9482   12.0402 H   0  0  0  0  0  0  0  0  0  0  0  0
  -11.8426  -14.3168   13.6243 H   0  0  0  0  0  0  0  0  0  0  0  0
   -8.9521   -5.3482    5.8659 H   0  0  0  0  0  0  0  0  0  0  0  0
   -9.8963   -6.1948    6.8732 H   0  0  0  0  0  0  0  0  0  0  0  0
   -9.2689   -3.9174    8.4175 H   0  0  0  0  0  0  0  0  0  0  0  0
  -10.0148   -3.4982    6.8404 H   0  0  0  0  0  0  0  0  0  0  0  0
   -7.5247   -2.6796    7.4439 H   0  0  0  0  0  0  0  0  0  0  0  0
   -7.8639   -3.3064    5.8189 H   0  0  0  0  0  0  0  0  0  0  0  0
   -6.5145   -5.0334    6.2196 H   0  0  0  0  0  0  0  0  0  0  0  0
   -6.4194   -4.4687    7.9385 H   0  0  0  0  0  0  0  0  0  0  0  0
  1  2  1  0
  2  3  1  0
  2  4  1  0
  4  5  1  0
  5  6  1  0
  6  7  2  0
  6  8  1  0
  8  9  1  0
  9 10  2  0
 10 11  1  0
 11 12  1  0
 12 13  1  0
 13 14  1  0
 14 15  1  0
 15 16  1  0
 11 17  1  0
  2 18  1  0
 18 19  1  0
 19 20  1  0
 20 21  1  0
 21 22  1  0
 17  8  2  0
 22 18  1  0
 16 12  1  0
  1 23  1  0
  1 24  1  0
  1 25  1  0
  3 26  1  0
  3 27  1  0
  3 28  1  0
  4 29  1  0
  4 30  1  0
  5 31  1  0
  9 32  1  0
 10 33  1  0
 12 34  1  0
 13 35  1  0
 13 36  1  0
 14 37  1  0
 14 38  1  0
 15 39  1  0
 15 40  1  0
 16 41  1  0
 16 42  1  0
 19 43  1  0
 19 44  1  0
 20 45  1  0
 20 46  1  0
 21 47  1  0
 21 48  1  0
 22 49  1  0
 22 50  1  0
M  END
>  <Energy>  (241) 
414.24293551383317

>  <compound_id>  (241) 
8750

>  <target_id>  (241) 
1

>  <reference_id>  (241) 
99

>  <inspiration_ids>  (241) 
[123, 99]

>  <energy_score>  (241) 
297.34060693278616

>  <distance_score>  (241) 
13.534527217319406

>  <path>  (241) 
/opt/xchem-fragalysis-2/maxwin/BulkDock/SCRATCH/511015/C8750-P99/C8750-P99.minimised.mol

>  <scratch_subdir>  (241) 
/opt/xchem-fragalysis-2/maxwin/BulkDock/SCRATCH/511015/C8750-P99

>  <fragmenstein_runtime>  (241) 
84.2565438747406

>  <fragmenstein_outcome>  (241) 
too moved

>  <fragmenstein_mode>  (241) 
expansion

>  <fragmenstein_error>  (241) 


$$$$
C8753-P123
     RDKit          3D

 51 53  0  0  0  0  0  0  0  0999 V2000
   -8.9739   -5.0775    6.4021 C   0  0  0  0  0  0  0  0  0  0  0  0
   -7.9907   -6.0057    7.4506 C   0  0  0  0  0  0  0  0  0  0  0  0
   -7.1948   -7.1181    9.0574 C   0  0  0  0  0  0  0  0  0  0  0  0
   -7.5470   -8.7432   10.3606 C   0  0  0  0  0  0  0  0  0  0  0  0
   -8.0261   -9.5398   12.1069 N   0  0  0  0  0  0  0  0  0  0  0  0
   -8.2177  -11.2184   13.1066 C   0  0  0  0  0  0  0  0  0  0  0  0
   -8.8224  -12.2819   14.7556 C   0  0  0  0  0  0  0  0  0  0  0  0
   -8.8473  -13.8760   14.3672 C   0  0  0  0  0  0  0  0  0  0  0  0
   -7.5645  -14.8135   14.9965 C   0  0  0  0  0  0  0  0  0  0  0  0
   -7.2149  -14.5760   16.4027 N   0  0  0  0  0  0  0  0  0  0  0  0
   -7.6600  -16.2877   17.2595 C   0  0  0  0  0  0  0  0  0  0  0  0
   -6.6986  -17.4803   18.5591 C   0  0  0  0  0  0  0  0  0  0  0  0
   -6.8224  -19.0611   18.4677 C   0  0  0  0  0  0  0  0  0  0  0  0
   -7.7205  -19.3623   17.2570 C   0  0  0  0  0  0  0  0  0  0  0  0
   -8.3603  -17.8396   16.6992 C   0  0  0  0  0  0  0  0  0  0  0  0
   -8.1349  -12.9103   16.3340 N   0  0  0  0  0  0  0  0  0  0  0  0
   -7.2084   -5.1675    8.9394 N   0  0  0  0  0  0  0  0  0  0  0  0
   -8.6038   -4.2758    8.9452 C   0  0  0  0  0  0  0  0  0  0  0  0
   -8.5022   -2.8611    8.3115 C   0  0  0  0  0  0  0  0  0  0  0  0
   -7.3047   -2.8273    7.4187 C   0  0  0  0  0  0  0  0  0  0  0  0
   -6.5730   -4.1659    7.5811 C   0  0  0  0  0  0  0  0  0  0  0  0
   -9.6992   -5.7138    5.8850 H   0  0  0  0  0  0  0  0  0  0  0  0
   -9.5776   -4.2355    6.7152 H   0  0  0  0  0  0  0  0  0  0  0  0
   -8.3357   -4.6168    5.6399 H   0  0  0  0  0  0  0  0  0  0  0  0
   -7.2684   -6.1241    6.5968 H   0  0  0  0  0  0  0  0  0  0  0  0
   -9.0240   -6.4541    7.4924 H   0  0  0  0  0  0  0  0  0  0  0  0
   -7.1316   -7.9205    8.2637 H   0  0  0  0  0  0  0  0  0  0  0  0
   -6.5366   -9.1740   10.3469 H   0  0  0  0  0  0  0  0  0  0  0  0
   -8.2178   -9.3679    9.7542 H   0  0  0  0  0  0  0  0  0  0  0  0
   -7.3073   -9.0941   12.6859 H   0  0  0  0  0  0  0  0  0  0  0  0
   -8.9780  -11.6379   12.4306 H   0  0  0  0  0  0  0  0  0  0  0  0
   -7.2542  -11.6819   12.8624 H   0  0  0  0  0  0  0  0  0  0  0  0
   -9.4867  -14.1848   13.5479 H   0  0  0  0  0  0  0  0  0  0  0  0
   -7.4218  -15.8657   14.7825 H   0  0  0  0  0  0  0  0  0  0  0  0
   -8.4188  -15.8415   17.9089 H   0  0  0  0  0  0  0  0  0  0  0  0
   -6.7852  -17.1720   19.6092 H   0  0  0  0  0  0  0  0  0  0  0  0
   -5.5913  -17.3328   18.4363 H   0  0  0  0  0  0  0  0  0  0  0  0
   -7.1598  -19.5134   19.4082 H   0  0  0  0  0  0  0  0  0  0  0  0
   -5.8287  -19.5070   18.3149 H   0  0  0  0  0  0  0  0  0  0  0  0
   -8.5430  -20.0575   17.4769 H   0  0  0  0  0  0  0  0  0  0  0  0
   -7.1772  -19.9614   16.5137 H   0  0  0  0  0  0  0  0  0  0  0  0
   -8.6078  -17.8895   15.6350 H   0  0  0  0  0  0  0  0  0  0  0  0
   -9.2625  -18.0345   17.2123 H   0  0  0  0  0  0  0  0  0  0  0  0
   -9.2501   -4.3829    9.8183 H   0  0  0  0  0  0  0  0  0  0  0  0
   -9.3494   -4.7466    8.3876 H   0  0  0  0  0  0  0  0  0  0  0  0
   -9.4065   -2.6099    7.7448 H   0  0  0  0  0  0  0  0  0  0  0  0
   -8.4404   -2.0223    8.9885 H   0  0  0  0  0  0  0  0  0  0  0  0
   -6.6509   -1.9904    7.6962 H   0  0  0  0  0  0  0  0  0  0  0  0
   -7.5882   -2.6515    6.3757 H   0  0  0  0  0  0  0  0  0  0  0  0
   -5.5379   -3.8458    7.7361 H   0  0  0  0  0  0  0  0  0  0  0  0
   -6.4934   -4.6111    6.5913 H   0  0  0  0  0  0  0  0  0  0  0  0
  1  2  1  0
  2  3  1  0
  3  4  1  0
  4  5  1  0
  5  6  1  0
  6  7  1  0
  7  8  1  0
  8  9  2  0
  9 10  1  0
 10 11  1  0
 11 12  1  0
 12 13  1  0
 13 14  1  0
 14 15  1  0
 10 16  1  0
  3 17  1  0
 17 18  1  0
 18 19  1  0
 19 20  1  0
 20 21  1  0
 16  7  2  0
 21 17  1  0
 15 11  1  0
  1 22  1  0
  1 23  1  0
  1 24  1  0
  2 25  1  0
  2 26  1  0
  3 27  1  0
  4 28  1  0
  4 29  1  0
  5 30  1  0
  6 31  1  0
  6 32  1  0
  8 33  1  0
  9 34  1  0
 11 35  1  0
 12 36  1  0
 12 37  1  0
 13 38  1  0
 13 39  1  0
 14 40  1  0
 14 41  1  0
 15 42  1  0
 15 43  1  0
 18 44  1  0
 18 45  1  0
 19 46  1  0
 19 47  1  0
 20 48  1  0
 20 49  1  0
 21 50  1  0
 21 51  1  0
M  END
>  <Energy>  (242) 
1524.4041800213136

>  <compound_id>  (242) 
8753

>  <target_id>  (242) 
1

>  <reference_id>  (242) 
123

>  <inspiration_ids>  (242) 
[123, 99]

>  <energy_score>  (242) 
1416.387125351319

>  <distance_score>  (242) 
10.88498670121341

>  <path>  (242) 
/opt/xchem-fragalysis-2/maxwin/BulkDock/SCRATCH/511015/C8753-P123/C8753-P123.minimised.mol

>  <scratch_subdir>  (242) 
/opt/xchem-fragalysis-2/maxwin/BulkDock/SCRATCH/511015/C8753-P123

>  <fragmenstein_runtime>  (242) 
43.99974322319031

>  <fragmenstein_outcome>  (242) 
too moved

>  <fragmenstein_mode>  (242) 
expansion

>  <fragmenstein_error>  (242) 


$$$$
C8753-P99
     RDKit          3D

 51 53  0  0  0  0  0  0  0  0999 V2000
   -8.6392   -3.3687    5.4196 C   0  0  0  0  0  0  0  0  0  0  0  0
   -8.5281   -3.9630    6.8240 C   0  0  0  0  0  0  0  0  0  0  0  0
   -7.0619   -4.2647    7.3113 C   0  0  0  0  0  0  0  0  0  0  0  0
   -7.1113   -5.3928    8.8005 C   0  0  0  0  0  0  0  0  0  0  0  0
   -6.9426   -7.2514    9.2343 N   0  0  0  0  0  0  0  0  0  0  0  0
   -6.3811   -8.1772   10.2921 C   0  0  0  0  0  0  0  0  0  0  0  0
   -7.1936   -9.5596   10.3752 C   0  0  0  0  0  0  0  0  0  0  0  0
   -8.3969   -9.8733    9.6916 C   0  0  0  0  0  0  0  0  0  0  0  0
   -8.7495  -11.1424   10.0588 C   0  0  0  0  0  0  0  0  0  0  0  0
   -7.7935  -11.5823   10.9388 N   0  0  0  0  0  0  0  0  0  0  0  0
   -7.8526  -12.9390   11.5064 C   0  0  0  0  0  0  0  0  0  0  0  0
   -8.9546  -13.1336   12.5509 C   0  0  0  0  0  0  0  0  0  0  0  0
   -8.6850  -14.5037   13.1562 C   0  0  0  0  0  0  0  0  0  0  0  0
   -7.1947  -14.7765   12.9796 C   0  0  0  0  0  0  0  0  0  0  0  0
   -6.6350  -13.6007   12.1545 C   0  0  0  0  0  0  0  0  0  0  0  0
   -6.8075  -10.6386   11.1268 N   0  0  0  0  0  0  0  0  0  0  0  0
   -6.2296   -3.0362    7.3340 N   0  0  0  0  0  0  0  0  0  0  0  0
   -6.7916   -1.7226    7.6302 C   0  0  0  0  0  0  0  0  0  0  0  0
   -5.5610   -0.8330    7.5501 C   0  0  0  0  0  0  0  0  0  0  0  0
   -4.8152   -1.3950    6.3537 C   0  0  0  0  0  0  0  0  0  0  0  0
   -5.2132   -2.8689    6.3044 C   0  0  0  0  0  0  0  0  0  0  0  0
   -9.6493   -3.5323    5.0288 H   0  0  0  0  0  0  0  0  0  0  0  0
   -8.4688   -2.2925    5.3940 H   0  0  0  0  0  0  0  0  0  0  0  0
   -7.9299   -3.8323    4.7294 H   0  0  0  0  0  0  0  0  0  0  0  0
   -9.0494   -3.3286    7.5494 H   0  0  0  0  0  0  0  0  0  0  0  0
   -9.0855   -4.9037    6.7774 H   0  0  0  0  0  0  0  0  0  0  0  0
   -6.6539   -4.8982    6.5135 H   0  0  0  0  0  0  0  0  0  0  0  0
   -7.7040   -4.9086    9.5598 H   0  0  0  0  0  0  0  0  0  0  0  0
   -7.8210   -5.7071    8.0187 H   0  0  0  0  0  0  0  0  0  0  0  0
   -7.3323   -7.8105    8.4730 H   0  0  0  0  0  0  0  0  0  0  0  0
   -6.2809   -7.7901   11.3104 H   0  0  0  0  0  0  0  0  0  0  0  0
   -5.3767   -8.4911   10.0784 H   0  0  0  0  0  0  0  0  0  0  0  0
   -8.9613   -9.2561    9.0166 H   0  0  0  0  0  0  0  0  0  0  0  0
   -9.5924  -11.7588    9.7806 H   0  0  0  0  0  0  0  0  0  0  0  0
   -8.1090  -13.5691   10.6396 H   0  0  0  0  0  0  0  0  0  0  0  0
   -8.9163  -12.3425   13.3070 H   0  0  0  0  0  0  0  0  0  0  0  0
   -9.9478  -13.0955   12.0926 H   0  0  0  0  0  0  0  0  0  0  0  0
   -9.2732  -15.2733   12.6441 H   0  0  0  0  0  0  0  0  0  0  0  0
   -8.9760  -14.4958   14.1961 H   0  0  0  0  0  0  0  0  0  0  0  0
   -7.0572  -15.7148   12.4293 H   0  0  0  0  0  0  0  0  0  0  0  0
   -6.6722  -14.8938   13.9329 H   0  0  0  0  0  0  0  0  0  0  0  0
   -6.0793  -12.8827   12.7527 H   0  0  0  0  0  0  0  0  0  0  0  0
   -5.9329  -13.9617   11.3940 H   0  0  0  0  0  0  0  0  0  0  0  0
   -7.2602   -1.6547    8.6118 H   0  0  0  0  0  0  0  0  0  0  0  0
   -7.5151   -1.3783    6.8909 H   0  0  0  0  0  0  0  0  0  0  0  0
   -5.8135    0.2237    7.4221 H   0  0  0  0  0  0  0  0  0  0  0  0
   -4.9492   -0.9307    8.4548 H   0  0  0  0  0  0  0  0  0  0  0  0
   -3.7337   -1.2567    6.4505 H   0  0  0  0  0  0  0  0  0  0  0  0
   -5.1435   -0.8895    5.4379 H   0  0  0  0  0  0  0  0  0  0  0  0
   -4.3368   -3.4753    6.5434 H   0  0  0  0  0  0  0  0  0  0  0  0
   -5.5718   -3.1276    5.3028 H   0  0  0  0  0  0  0  0  0  0  0  0
  1  2  1  0
  2  3  1  0
  3  4  1  0
  4  5  1  0
  5  6  1  0
  6  7  1  0
  7  8  1  0
  8  9  2  0
  9 10  1  0
 10 11  1  0
 11 12  1  0
 12 13  1  0
 13 14  1  0
 14 15  1  0
 10 16  1  0
  3 17  1  0
 17 18  1  0
 18 19  1  0
 19 20  1  0
 20 21  1  0
 16  7  2  0
 21 17  1  0
 15 11  1  0
  1 22  1  0
  1 23  1  0
  1 24  1  0
  2 25  1  0
  2 26  1  0
  3 27  1  0
  4 28  1  0
  4 29  1  0
  5 30  1  0
  6 31  1  0
  6 32  1  0
  8 33  1  0
  9 34  1  0
 11 35  1  0
 12 36  1  0
 12 37  1  0
 13 38  1  0
 13 39  1  0
 14 40  1  0
 14 41  1  0
 15 42  1  0
 15 43  1  0
 18 44  1  0
 18 45  1  0
 19 46  1  0
 19 47  1  0
 20 48  1  0
 20 49  1  0
 21 50  1  0
 21 51  1  0
M  END
>  <Energy>  (243) 
241.49193970376436

>  <compound_id>  (243) 
8753

>  <target_id>  (243) 
1

>  <reference_id>  (243) 
99

>  <inspiration_ids>  (243) 
[123, 99]

>  <energy_score>  (243) 
133.47488503374439

>  <distance_score>  (243) 
13.111180855683955

>  <path>  (243) 
/opt/xchem-fragalysis-2/maxwin/BulkDock/SCRATCH/511015/C8753-P99/C8753-P99.minimised.mol

>  <scratch_subdir>  (243) 
/opt/xchem-fragalysis-2/maxwin/BulkDock/SCRATCH/511015/C8753-P99

>  <fragmenstein_runtime>  (243) 
38.75506949424744

>  <fragmenstein_outcome>  (243) 
too moved

>  <fragmenstein_mode>  (243) 
expansion

>  <fragmenstein_error>  (243) 


$$$$
C8754-P123
     RDKit          3D

 44 46  0  0  0  0  0  0  0  0999 V2000
   -4.9327   -7.2626   11.0031 O   0  0  0  0  0  0  0  0  0  0  0  0
   -6.0395   -7.4476   10.6031 C   0  0  0  0  0  0  0  0  0  0  0  0
   -6.6290   -5.8980    9.5140 C   0  0  0  0  0  0  0  0  0  0  0  0
   -7.3906   -5.0333    8.1066 N   0  0  0  0  0  0  0  0  0  0  0  0
   -8.6036   -4.2274    8.2610 C   0  0  0  0  0  0  0  0  0  0  0  0
   -8.3615   -2.7959    7.8150 C   0  0  0  0  0  0  0  0  0  0  0  0
   -7.4610   -3.0201    6.6391 C   0  0  0  0  0  0  0  0  0  0  0  0
   -6.6339   -4.2233    7.0838 C   0  0  0  0  0  0  0  0  0  0  0  0
   -7.0182   -8.6561   10.9490 N   0  0  0  0  0  0  0  0  0  0  0  0
   -6.8609   -9.8501   11.9640 C   0  0  0  0  0  0  0  0  0  0  0  0
   -8.0530  -10.5270   13.0463 C   0  0  0  0  0  0  0  0  0  0  0  0
   -8.7220  -11.7601   12.7400 C   0  0  0  0  0  0  0  0  0  0  0  0
   -9.0987  -12.4136   13.9136 C   0  0  0  0  0  0  0  0  0  0  0  0
   -8.7393  -11.6449   15.0789 N   0  0  0  0  0  0  0  0  0  0  0  0
   -8.2431  -12.3995   16.8025 C   0  0  0  0  0  0  0  0  0  0  0  0
   -6.9948  -11.3558   17.7760 C   0  0  0  0  0  0  0  0  0  0  0  0
   -6.7766  -12.1902   18.9772 C   0  0  0  0  0  0  0  0  0  0  0  0
   -8.0862  -13.1127   19.0479 C   0  0  0  0  0  0  0  0  0  0  0  0
   -9.1065  -12.4350   18.3005 C   0  0  0  0  0  0  0  0  0  0  0  0
   -8.1569  -10.3247   14.4281 N   0  0  0  0  0  0  0  0  0  0  0  0
   -7.0565   -5.1398   10.1403 H   0  0  0  0  0  0  0  0  0  0  0  0
   -7.1039   -6.8174    9.1778 H   0  0  0  0  0  0  0  0  0  0  0  0
   -9.1159   -4.3131    9.2031 H   0  0  0  0  0  0  0  0  0  0  0  0
   -9.2442   -4.6353    7.4822 H   0  0  0  0  0  0  0  0  0  0  0  0
   -9.2871   -2.2870    7.5299 H   0  0  0  0  0  0  0  0  0  0  0  0
   -7.8577   -2.1896    8.5679 H   0  0  0  0  0  0  0  0  0  0  0  0
   -8.0502   -3.2705    5.7482 H   0  0  0  0  0  0  0  0  0  0  0  0
   -6.8461   -2.1455    6.4067 H   0  0  0  0  0  0  0  0  0  0  0  0
   -5.6857   -3.8005    7.4211 H   0  0  0  0  0  0  0  0  0  0  0  0
   -6.4914   -4.8294    6.1907 H   0  0  0  0  0  0  0  0  0  0  0  0
   -7.8545   -8.5763   10.3897 H   0  0  0  0  0  0  0  0  0  0  0  0
   -6.5413  -10.6993   11.3481 H   0  0  0  0  0  0  0  0  0  0  0  0
   -6.0289   -9.5704   12.6211 H   0  0  0  0  0  0  0  0  0  0  0  0
   -8.7693  -12.2159   11.7602 H   0  0  0  0  0  0  0  0  0  0  0  0
   -9.4635  -13.4195   14.0553 H   0  0  0  0  0  0  0  0  0  0  0  0
   -9.2536  -12.1000   16.7856 H   0  0  0  0  0  0  0  0  0  0  0  0
   -7.3169  -10.3693   18.1333 H   0  0  0  0  0  0  0  0  0  0  0  0
   -6.0549  -11.0914   17.2650 H   0  0  0  0  0  0  0  0  0  0  0  0
   -6.5611  -11.5124   19.8057 H   0  0  0  0  0  0  0  0  0  0  0  0
   -5.7909  -12.6342   18.8401 H   0  0  0  0  0  0  0  0  0  0  0  0
   -8.4780  -13.5054   19.9637 H   0  0  0  0  0  0  0  0  0  0  0  0
   -8.1007  -13.9944   18.4486 H   0  0  0  0  0  0  0  0  0  0  0  0
   -9.2664  -11.5848   18.8998 H   0  0  0  0  0  0  0  0  0  0  0  0
  -10.1261  -12.8140   18.2878 H   0  0  0  0  0  0  0  0  0  0  0  0
  1  2  2  0
  2  3  1  0
  3  4  1  0
  4  5  1  0
  5  6  1  0
  6  7  1  0
  7  8  1  0
  2  9  1  0
  9 10  1  0
 10 11  1  0
 11 12  1  0
 12 13  2  0
 13 14  1  0
 14 15  1  0
 15 16  1  0
 16 17  1  0
 17 18  1  0
 18 19  1  0
 14 20  1  0
  8  4  1  0
 20 11  2  0
 19 15  1  0
  3 21  1  0
  3 22  1  0
  5 23  1  0
  5 24  1  0
  6 25  1  0
  6 26  1  0
  7 27  1  0
  7 28  1  0
  8 29  1  0
  8 30  1  0
  9 31  1  0
 10 32  1  0
 10 33  1  0
 12 34  1  0
 13 35  1  0
 15 36  1  0
 16 37  1  0
 16 38  1  0
 17 39  1  0
 17 40  1  0
 18 41  1  0
 18 42  1  0
 19 43  1  0
 19 44  1  0
M  END
>  <Energy>  (244) 
550.71492941728525

>  <compound_id>  (244) 
8754

>  <target_id>  (244) 
1

>  <reference_id>  (244) 
123

>  <inspiration_ids>  (244) 
[123, 99]

>  <energy_score>  (244) 
468.50808191239946

>  <distance_score>  (244) 
10.718344340455364

>  <path>  (244) 
/opt/xchem-fragalysis-2/maxwin/BulkDock/SCRATCH/511015/C8754-P123/C8754-P123.minimised.mol

>  <scratch_subdir>  (244) 
/opt/xchem-fragalysis-2/maxwin/BulkDock/SCRATCH/511015/C8754-P123

>  <fragmenstein_runtime>  (244) 
40.33599781990051

>  <fragmenstein_outcome>  (244) 
too moved

>  <fragmenstein_mode>  (244) 
expansion

>  <fragmenstein_error>  (244) 


$$$$
C8754-P99
     RDKit          3D

 44 46  0  0  0  0  0  0  0  0999 V2000
   -5.9222   -9.3899    7.7954 O   0  0  0  0  0  0  0  0  0  0  0  0
   -6.6557   -8.9658    8.6300 C   0  0  0  0  0  0  0  0  0  0  0  0
   -7.5816   -7.6229    8.3391 C   0  0  0  0  0  0  0  0  0  0  0  0
   -7.8654   -5.8258    7.5990 N   0  0  0  0  0  0  0  0  0  0  0  0
   -8.2314   -4.6225    8.4065 C   0  0  0  0  0  0  0  0  0  0  0  0
   -8.0157   -3.3401    7.5996 C   0  0  0  0  0  0  0  0  0  0  0  0
   -6.9993   -3.7701    6.5878 C   0  0  0  0  0  0  0  0  0  0  0  0
   -7.4884   -5.1898    6.3379 C   0  0  0  0  0  0  0  0  0  0  0  0
   -6.9951   -9.4943    9.9442 N   0  0  0  0  0  0  0  0  0  0  0  0
   -6.4736  -10.6387   10.6713 C   0  0  0  0  0  0  0  0  0  0  0  0
   -7.3902  -11.3233   11.6391 C   0  0  0  0  0  0  0  0  0  0  0  0
   -8.0177  -10.7654   12.7755 C   0  0  0  0  0  0  0  0  0  0  0  0
   -8.5127  -11.8378   13.4774 C   0  0  0  0  0  0  0  0  0  0  0  0
   -8.2236  -12.9634   12.7551 N   0  0  0  0  0  0  0  0  0  0  0  0
   -8.5685  -14.3335   13.1442 C   0  0  0  0  0  0  0  0  0  0  0  0
   -9.3141  -15.1336   12.0776 C   0  0  0  0  0  0  0  0  0  0  0  0
   -9.1165  -16.5936   12.4497 C   0  0  0  0  0  0  0  0  0  0  0  0
   -7.7464  -16.6516   13.1036 C   0  0  0  0  0  0  0  0  0  0  0  0
   -7.3822  -15.2242   13.5326 C   0  0  0  0  0  0  0  0  0  0  0  0
   -7.5348  -12.6686   11.6252 N   0  0  0  0  0  0  0  0  0  0  0  0
   -7.1072   -7.2227    9.2561 H   0  0  0  0  0  0  0  0  0  0  0  0
   -8.5700   -8.1007    8.3486 H   0  0  0  0  0  0  0  0  0  0  0  0
   -7.6253   -4.7276    9.2837 H   0  0  0  0  0  0  0  0  0  0  0  0
   -9.2581   -4.5838    8.7401 H   0  0  0  0  0  0  0  0  0  0  0  0
   -8.9508   -3.0683    7.0914 H   0  0  0  0  0  0  0  0  0  0  0  0
   -7.7141   -2.4682    8.1837 H   0  0  0  0  0  0  0  0  0  0  0  0
   -7.0334   -3.1552    5.6833 H   0  0  0  0  0  0  0  0  0  0  0  0
   -5.9869   -3.7293    6.9922 H   0  0  0  0  0  0  0  0  0  0  0  0
   -6.7954   -5.7160    5.7271 H   0  0  0  0  0  0  0  0  0  0  0  0
   -8.4383   -5.0141    5.8301 H   0  0  0  0  0  0  0  0  0  0  0  0
   -7.5905   -8.8324   10.4229 H   0  0  0  0  0  0  0  0  0  0  0  0
   -6.1049  -11.3507    9.9236 H   0  0  0  0  0  0  0  0  0  0  0  0
   -5.5930  -10.2767   11.2151 H   0  0  0  0  0  0  0  0  0  0  0  0
   -8.0396   -9.7306   13.0816 H   0  0  0  0  0  0  0  0  0  0  0  0
   -9.0290  -11.8991   14.4216 H   0  0  0  0  0  0  0  0  0  0  0  0
   -9.2332  -14.2359   14.0047 H   0  0  0  0  0  0  0  0  0  0  0  0
   -8.8886  -14.9541   11.0825 H   0  0  0  0  0  0  0  0  0  0  0  0
  -10.3741  -14.8629   12.0277 H   0  0  0  0  0  0  0  0  0  0  0  0
   -9.1677  -17.2406   11.5676 H   0  0  0  0  0  0  0  0  0  0  0  0
   -9.9038  -16.9308   13.1228 H   0  0  0  0  0  0  0  0  0  0  0  0
   -7.7593  -17.3571   13.9295 H   0  0  0  0  0  0  0  0  0  0  0  0
   -7.0014  -17.0161   12.3866 H   0  0  0  0  0  0  0  0  0  0  0  0
   -7.1636  -15.1600   14.6011 H   0  0  0  0  0  0  0  0  0  0  0  0
   -6.4664  -14.9155   13.0138 H   0  0  0  0  0  0  0  0  0  0  0  0
  1  2  2  0
  2  3  1  0
  3  4  1  0
  4  5  1  0
  5  6  1  0
  6  7  1  0
  7  8  1  0
  2  9  1  0
  9 10  1  0
 10 11  1  0
 11 12  1  0
 12 13  2  0
 13 14  1  0
 14 15  1  0
 15 16  1  0
 16 17  1  0
 17 18  1  0
 18 19  1  0
 14 20  1  0
  8  4  1  0
 20 11  2  0
 19 15  1  0
  3 21  1  0
  3 22  1  0
  5 23  1  0
  5 24  1  0
  6 25  1  0
  6 26  1  0
  7 27  1  0
  7 28  1  0
  8 29  1  0
  8 30  1  0
  9 31  1  0
 10 32  1  0
 10 33  1  0
 12 34  1  0
 13 35  1  0
 15 36  1  0
 16 37  1  0
 16 38  1  0
 17 39  1  0
 17 40  1  0
 18 41  1  0
 18 42  1  0
 19 43  1  0
 19 44  1  0
M  END
>  <Energy>  (245) 
225.00815921001018

>  <compound_id>  (245) 
8754

>  <target_id>  (245) 
1

>  <reference_id>  (245) 
99

>  <inspiration_ids>  (245) 
[123, 99]

>  <energy_score>  (245) 
142.80131170513073

>  <distance_score>  (245) 
12.155674770636749

>  <path>  (245) 
/opt/xchem-fragalysis-2/maxwin/BulkDock/SCRATCH/511015/C8754-P99/C8754-P99.minimised.mol

>  <scratch_subdir>  (245) 
/opt/xchem-fragalysis-2/maxwin/BulkDock/SCRATCH/511015/C8754-P99

>  <fragmenstein_runtime>  (245) 
58.672168493270874

>  <fragmenstein_outcome>  (245) 
too moved

>  <fragmenstein_mode>  (245) 
expansion

>  <fragmenstein_error>  (245) 


$$$$
C28363-P123
     RDKit          3D

 45 46  0  0  0  0  0  0  0  0999 V2000
   -7.2539  -15.6611   15.3345 C   0  0  0  0  0  0  0  0  0  0  0  0
   -6.4387  -15.2461   16.5863 C   0  0  0  0  0  0  0  0  0  0  0  0
   -7.5167  -14.8702   17.1724 N   0  0  0  0  0  0  0  0  0  0  0  0
   -8.2725  -16.1220   18.0424 C   0  0  0  0  0  0  0  0  0  0  0  0
   -6.9198  -17.4378   18.7812 C   0  0  0  0  0  0  0  0  0  0  0  0
   -6.8321  -17.8656   20.2720 N   0  0  0  0  0  0  0  0  0  0  0  0
   -6.3615  -19.0761   20.8763 C   0  0  0  0  0  0  0  0  0  0  0  0
   -5.8373  -20.0304   20.3921 O   0  0  0  0  0  0  0  0  0  0  0  0
   -6.7899  -19.0121   22.4663 C   0  0  0  0  0  0  0  0  0  0  0  0
   -6.8751  -20.2268   23.4138 N   0  0  0  0  0  0  0  0  0  0  0  0
   -7.8883  -21.1680   23.5739 C   0  0  0  0  0  0  0  0  0  0  0  0
   -7.3948  -22.1720   24.3869 C   0  0  0  0  0  0  0  0  0  0  0  0
   -6.2044  -21.6424   24.8980 C   0  0  0  0  0  0  0  0  0  0  0  0
   -5.9459  -20.4166   24.4234 N   0  0  0  0  0  0  0  0  0  0  0  0
   -7.9644  -13.1178   16.9219 C   0  0  0  0  0  0  0  0  0  0  0  0
   -7.5101  -12.3162   17.7771 O   0  0  0  0  0  0  0  0  0  0  0  0
   -8.9361  -12.3339   15.2691 C   0  0  0  0  0  0  0  0  0  0  0  0
   -8.7108  -11.0238   14.1017 C   0  0  0  0  0  0  0  0  0  0  0  0
   -7.5534  -10.7001   13.1373 C   0  0  0  0  0  0  0  0  0  0  0  0
   -7.0563   -9.3980   12.8570 C   0  0  0  0  0  0  0  0  0  0  0  0
   -6.0634   -9.3465   11.9707 N   0  0  0  0  0  0  0  0  0  0  0  0
   -5.8829  -10.6289   11.6601 N   0  0  0  0  0  0  0  0  0  0  0  0
   -6.7558  -11.4657   12.3085 C   0  0  0  0  0  0  0  0  0  0  0  0
   -6.8135  -16.1580   14.4383 H   0  0  0  0  0  0  0  0  0  0  0  0
   -7.7398  -14.7882   14.9488 H   0  0  0  0  0  0  0  0  0  0  0  0
   -8.0323  -16.3365   15.6251 H   0  0  0  0  0  0  0  0  0  0  0  0
   -5.6498  -15.9255   16.9135 H   0  0  0  0  0  0  0  0  0  0  0  0
   -6.2013  -14.2001   16.7146 H   0  0  0  0  0  0  0  0  0  0  0  0
   -8.7097  -16.7582   17.3026 H   0  0  0  0  0  0  0  0  0  0  0  0
   -8.8669  -15.6719   18.8385 H   0  0  0  0  0  0  0  0  0  0  0  0
   -7.1478  -18.3626   18.2552 H   0  0  0  0  0  0  0  0  0  0  0  0
   -5.8373  -17.3417   18.5793 H   0  0  0  0  0  0  0  0  0  0  0  0
   -7.1498  -17.2302   21.0057 H   0  0  0  0  0  0  0  0  0  0  0  0
   -6.2302  -18.2508   22.9871 H   0  0  0  0  0  0  0  0  0  0  0  0
   -7.8119  -18.6730   22.4393 H   0  0  0  0  0  0  0  0  0  0  0  0
   -8.8205  -21.0893   23.0333 H   0  0  0  0  0  0  0  0  0  0  0  0
   -7.8782  -23.1055   24.6297 H   0  0  0  0  0  0  0  0  0  0  0  0
   -5.5293  -22.0789   25.6221 H   0  0  0  0  0  0  0  0  0  0  0  0
  -10.0235  -12.1649   15.3441 H   0  0  0  0  0  0  0  0  0  0  0  0
   -9.0006  -13.1884   14.5463 H   0  0  0  0  0  0  0  0  0  0  0  0
   -9.0176  -10.0868   14.5652 H   0  0  0  0  0  0  0  0  0  0  0  0
   -9.5051  -11.2017   13.3730 H   0  0  0  0  0  0  0  0  0  0  0  0
   -7.3607   -8.4857   13.3286 H   0  0  0  0  0  0  0  0  0  0  0  0
   -5.1645  -10.8672   10.9850 H   0  0  0  0  0  0  0  0  0  0  0  0
   -6.7044  -12.5175   12.1093 H   0  0  0  0  0  0  0  0  0  0  0  0
  1  2  1  0
  2  3  1  0
  3  4  1  0
  4  5  1  0
  5  6  1  0
  6  7  1  0
  7  8  2  0
  7  9  1  0
  9 10  1  0
 10 11  1  0
 11 12  2  0
 12 13  1  0
 13 14  2  0
  3 15  1  0
 15 16  2  0
 15 17  1  0
 17 18  1  0
 18 19  1  0
 19 20  1  0
 20 21  2  0
 21 22  1  0
 22 23  1  0
 14 10  1  0
 23 19  2  0
  1 24  1  0
  1 25  1  0
  1 26  1  0
  2 27  1  0
  2 28  1  0
  4 29  1  0
  4 30  1  0
  5 31  1  0
  5 32  1  0
  6 33  1  0
  9 34  1  0
  9 35  1  0
 11 36  1  0
 12 37  1  0
 13 38  1  0
 17 39  1  0
 17 40  1  0
 18 41  1  0
 18 42  1  0
 20 43  1  0
 22 44  1  0
 23 45  1  0
M  END
>  <Energy>  (246) 
398.7078212032493

>  <compound_id>  (246) 
28363

>  <target_id>  (246) 
1

>  <reference_id>  (246) 
123

>  <inspiration_ids>  (246) 
[123, 99]

>  <energy_score>  (246) 
359.89172329324276

>  <distance_score>  (246) 
12.0437994271598

>  <path>  (246) 
/opt/xchem-fragalysis-2/maxwin/BulkDock/SCRATCH/511015/C28363-P123/C28363-P123.minimised.mol

>  <scratch_subdir>  (246) 
/opt/xchem-fragalysis-2/maxwin/BulkDock/SCRATCH/511015/C28363-P123

>  <fragmenstein_runtime>  (246) 
27.567793607711792

>  <fragmenstein_outcome>  (246) 
too moved

>  <fragmenstein_mode>  (246) 
expansion

>  <fragmenstein_error>  (246) 


$$$$
C28363-P99
     RDKit          3D

 45 46  0  0  0  0  0  0  0  0999 V2000
   -9.6574  -14.0598    9.7917 C   0  0  0  0  0  0  0  0  0  0  0  0
   -9.5284  -15.5105   10.2818 C   0  0  0  0  0  0  0  0  0  0  0  0
   -8.3870  -15.7621   11.1628 N   0  0  0  0  0  0  0  0  0  0  0  0
   -8.5814  -16.4634   12.4565 C   0  0  0  0  0  0  0  0  0  0  0  0
   -9.1686  -17.9281   12.4533 C   0  0  0  0  0  0  0  0  0  0  0  0
   -9.1161  -18.6047   13.7789 N   0  0  0  0  0  0  0  0  0  0  0  0
  -10.0025  -19.6287   14.3823 C   0  0  0  0  0  0  0  0  0  0  0  0
  -11.0267  -20.1071   13.9813 O   0  0  0  0  0  0  0  0  0  0  0  0
   -9.3876  -20.0966   15.7488 C   0  0  0  0  0  0  0  0  0  0  0  0
  -10.2222  -20.8386   16.7294 N   0  0  0  0  0  0  0  0  0  0  0  0
   -9.8684  -22.0206   17.3521 C   0  0  0  0  0  0  0  0  0  0  0  0
  -10.7672  -22.2322   18.3734 C   0  0  0  0  0  0  0  0  0  0  0  0
  -11.6287  -21.1293   18.3054 C   0  0  0  0  0  0  0  0  0  0  0  0
  -11.2711  -20.2524   17.3559 N   0  0  0  0  0  0  0  0  0  0  0  0
   -7.1223  -15.3270   10.7531 C   0  0  0  0  0  0  0  0  0  0  0  0
   -6.3805  -16.0473   10.0917 O   0  0  0  0  0  0  0  0  0  0  0  0
   -6.7253  -13.9209   11.2280 C   0  0  0  0  0  0  0  0  0  0  0  0
   -5.4265  -13.3420   10.6293 C   0  0  0  0  0  0  0  0  0  0  0  0
   -5.5405  -12.5458    9.3711 C   0  0  0  0  0  0  0  0  0  0  0  0
   -5.9597  -12.9639    8.0875 C   0  0  0  0  0  0  0  0  0  0  0  0
   -5.9282  -11.9796    7.1874 N   0  0  0  0  0  0  0  0  0  0  0  0
   -5.4696  -10.9303    7.8815 N   0  0  0  0  0  0  0  0  0  0  0  0
   -5.2048  -11.2189    9.1866 C   0  0  0  0  0  0  0  0  0  0  0  0
   -9.7575  -13.3796   10.6422 H   0  0  0  0  0  0  0  0  0  0  0  0
  -10.5534  -13.9581    9.1711 H   0  0  0  0  0  0  0  0  0  0  0  0
   -8.7990  -13.7630    9.1839 H   0  0  0  0  0  0  0  0  0  0  0  0
   -9.4229  -16.1767    9.4184 H   0  0  0  0  0  0  0  0  0  0  0  0
  -10.4455  -15.7882   10.8122 H   0  0  0  0  0  0  0  0  0  0  0  0
   -7.6126  -16.4805   12.9705 H   0  0  0  0  0  0  0  0  0  0  0  0
   -9.2444  -15.8163   13.0390 H   0  0  0  0  0  0  0  0  0  0  0  0
  -10.2081  -17.9319   12.1116 H   0  0  0  0  0  0  0  0  0  0  0  0
   -8.5869  -18.5508   11.7659 H   0  0  0  0  0  0  0  0  0  0  0  0
   -8.3815  -18.3788   14.4292 H   0  0  0  0  0  0  0  0  0  0  0  0
   -9.0090  -19.2329   16.3017 H   0  0  0  0  0  0  0  0  0  0  0  0
   -8.5403  -20.7506   15.5113 H   0  0  0  0  0  0  0  0  0  0  0  0
   -9.0129  -22.5919   17.0212 H   0  0  0  0  0  0  0  0  0  0  0  0
  -10.7927  -23.0616   19.0649 H   0  0  0  0  0  0  0  0  0  0  0  0
  -12.4852  -20.9046   18.9276 H   0  0  0  0  0  0  0  0  0  0  0  0
   -7.5484  -13.2190   11.0965 H   0  0  0  0  0  0  0  0  0  0  0  0
   -6.5763  -14.0267   12.3076 H   0  0  0  0  0  0  0  0  0  0  0  0
   -4.9787  -12.6863   11.3864 H   0  0  0  0  0  0  0  0  0  0  0  0
   -4.6977  -14.1457   10.4668 H   0  0  0  0  0  0  0  0  0  0  0  0
   -6.2866  -13.9499    7.7786 H   0  0  0  0  0  0  0  0  0  0  0  0
   -5.3704  -10.0480    7.3951 H   0  0  0  0  0  0  0  0  0  0  0  0
   -4.8323  -10.4743    9.8743 H   0  0  0  0  0  0  0  0  0  0  0  0
  1  2  1  0
  2  3  1  0
  3  4  1  0
  4  5  1  0
  5  6  1  0
  6  7  1  0
  7  8  2  0
  7  9  1  0
  9 10  1  0
 10 11  1  0
 11 12  2  0
 12 13  1  0
 13 14  2  0
  3 15  1  0
 15 16  2  0
 15 17  1  0
 17 18  1  0
 18 19  1  0
 19 20  1  0
 20 21  2  0
 21 22  1  0
 22 23  1  0
 14 10  1  0
 23 19  2  0
  1 24  1  0
  1 25  1  0
  1 26  1  0
  2 27  1  0
  2 28  1  0
  4 29  1  0
  4 30  1  0
  5 31  1  0
  5 32  1  0
  6 33  1  0
  9 34  1  0
  9 35  1  0
 11 36  1  0
 12 37  1  0
 13 38  1  0
 17 39  1  0
 17 40  1  0
 18 41  1  0
 18 42  1  0
 20 43  1  0
 22 44  1  0
 23 45  1  0
M  END
>  <Energy>  (247) 
53.52334986983621

>  <compound_id>  (247) 
28363

>  <target_id>  (247) 
1

>  <reference_id>  (247) 
99

>  <inspiration_ids>  (247) 
[123, 99]

>  <energy_score>  (247) 
14.707251959837663

>  <distance_score>  (247) 
13.334023521371298

>  <path>  (247) 
/opt/xchem-fragalysis-2/maxwin/BulkDock/SCRATCH/511015/C28363-P99/C28363-P99.minimised.mol

>  <scratch_subdir>  (247) 
/opt/xchem-fragalysis-2/maxwin/BulkDock/SCRATCH/511015/C28363-P99

>  <fragmenstein_runtime>  (247) 
39.38459753990173

>  <fragmenstein_outcome>  (247) 
too moved

>  <fragmenstein_mode>  (247) 
expansion

>  <fragmenstein_error>  (247) 


$$$$
C28366-P123
     RDKit          3D

 49 51  0  0  0  0  0  0  0  0999 V2000
   -6.5687   -9.0609   15.2134 C   0  0  0  0  0  0  0  0  0  0  0  0
   -6.7090   -9.2829   16.8060 C   0  0  0  0  0  0  0  0  0  0  0  0
   -6.8090  -11.0557   17.5413 C   0  0  0  0  0  0  0  0  0  0  0  0
   -5.2406  -10.9956   17.3329 C   0  0  0  0  0  0  0  0  0  0  0  0
   -4.2579   -9.8335   16.7918 N   0  0  0  0  0  0  0  0  0  0  0  0
   -2.8512   -9.6651   16.9126 C   0  0  0  0  0  0  0  0  0  0  0  0
   -2.0385  -10.2974   17.5163 O   0  0  0  0  0  0  0  0  0  0  0  0
   -2.4794   -8.5328   16.0066 C   0  0  0  0  0  0  0  0  0  0  0  0
   -3.1930   -7.3517   15.6198 C   0  0  0  0  0  0  0  0  0  0  0  0
   -2.6843   -6.7379   14.5417 N   0  0  0  0  0  0  0  0  0  0  0  0
   -1.5909   -7.4771   14.2680 N   0  0  0  0  0  0  0  0  0  0  0  0
   -1.4237   -8.5368   15.1135 C   0  0  0  0  0  0  0  0  0  0  0  0
   -7.2123  -11.6891   19.1533 N   0  0  0  0  0  0  0  0  0  0  0  0
   -6.1918  -11.8318   20.7049 C   0  0  0  0  0  0  0  0  0  0  0  0
   -5.0026  -11.5418   20.6535 O   0  0  0  0  0  0  0  0  0  0  0  0
   -6.6562  -12.2047   22.5131 C   0  0  0  0  0  0  0  0  0  0  0  0
   -7.0482  -11.2732   23.5511 C   0  0  0  0  0  0  0  0  0  0  0  0
   -6.4359  -11.5163   24.8344 C   0  0  0  0  0  0  0  0  0  0  0  0
   -5.6371  -12.5699   24.5987 N   0  0  0  0  0  0  0  0  0  0  0  0
   -4.8320  -13.2996   25.5570 C   0  0  0  0  0  0  0  0  0  0  0  0
   -5.2481  -13.1344   27.0238 C   0  0  0  0  0  0  0  0  0  0  0  0
   -4.5076  -14.2487   27.7528 C   0  0  0  0  0  0  0  0  0  0  0  0
   -4.2863  -15.3507   26.7198 C   0  0  0  0  0  0  0  0  0  0  0  0
   -4.8603  -14.8241   25.4090 C   0  0  0  0  0  0  0  0  0  0  0  0
   -5.8970  -13.0754   23.3558 N   0  0  0  0  0  0  0  0  0  0  0  0
   -5.7042   -9.5346   14.7477 H   0  0  0  0  0  0  0  0  0  0  0  0
   -6.4680   -7.9865   15.0151 H   0  0  0  0  0  0  0  0  0  0  0  0
   -7.4253   -9.4394   14.6440 H   0  0  0  0  0  0  0  0  0  0  0  0
   -5.9252   -8.6365   17.2260 H   0  0  0  0  0  0  0  0  0  0  0  0
   -7.4761   -8.7229   17.3191 H   0  0  0  0  0  0  0  0  0  0  0  0
   -7.5880  -11.6393   17.0775 H   0  0  0  0  0  0  0  0  0  0  0  0
   -4.6966  -11.6599   18.0015 H   0  0  0  0  0  0  0  0  0  0  0  0
   -5.4778  -11.0967   16.3282 H   0  0  0  0  0  0  0  0  0  0  0  0
   -4.6089   -9.1660   16.1374 H   0  0  0  0  0  0  0  0  0  0  0  0
   -4.0993   -6.9518   16.0581 H   0  0  0  0  0  0  0  0  0  0  0  0
   -1.0122   -7.2177   13.4734 H   0  0  0  0  0  0  0  0  0  0  0  0
   -0.6173   -9.2431   14.9712 H   0  0  0  0  0  0  0  0  0  0  0  0
   -8.1396  -12.0440   19.3498 H   0  0  0  0  0  0  0  0  0  0  0  0
   -7.8033  -10.4960   23.4664 H   0  0  0  0  0  0  0  0  0  0  0  0
   -6.5580  -11.0217   25.7888 H   0  0  0  0  0  0  0  0  0  0  0  0
   -3.8090  -12.9269   25.4412 H   0  0  0  0  0  0  0  0  0  0  0  0
   -6.3303  -13.2721   27.1439 H   0  0  0  0  0  0  0  0  0  0  0  0
   -4.9906  -12.1486   27.4247 H   0  0  0  0  0  0  0  0  0  0  0  0
   -3.5405  -13.8854   28.1194 H   0  0  0  0  0  0  0  0  0  0  0  0
   -5.0735  -14.6065   28.6187 H   0  0  0  0  0  0  0  0  0  0  0  0
   -4.7689  -16.2880   27.0148 H   0  0  0  0  0  0  0  0  0  0  0  0
   -3.2142  -15.5525   26.6149 H   0  0  0  0  0  0  0  0  0  0  0  0
   -4.2835  -15.1786   24.5502 H   0  0  0  0  0  0  0  0  0  0  0  0
   -5.8896  -15.1854   25.2887 H   0  0  0  0  0  0  0  0  0  0  0  0
  1  2  1  0
  2  3  1  0
  3  4  1  0
  4  5  1  0
  5  6  1  0
  6  7  2  0
  6  8  1  0
  8  9  1  0
  9 10  2  0
 10 11  1  0
 11 12  1  0
  3 13  1  0
 13 14  1  0
 14 15  2  0
 14 16  1  0
 16 17  1  0
 17 18  2  0
 18 19  1  0
 19 20  1  0
 20 21  1  0
 21 22  1  0
 22 23  1  0
 23 24  1  0
 19 25  1  0
 12  8  2  0
 25 16  2  0
 24 20  1  0
  1 26  1  0
  1 27  1  0
  1 28  1  0
  2 29  1  0
  2 30  1  0
  3 31  1  0
  4 32  1  0
  4 33  1  0
  5 34  1  0
  9 35  1  0
 11 36  1  0
 12 37  1  0
 13 38  1  0
 17 39  1  0
 18 40  1  0
 20 41  1  0
 21 42  1  0
 21 43  1  0
 22 44  1  0
 22 45  1  0
 23 46  1  0
 23 47  1  0
 24 48  1  0
 24 49  1  0
M  END
>  <Energy>  (248) 
395.55668352329707

>  <compound_id>  (248) 
28366

>  <target_id>  (248) 
1

>  <reference_id>  (248) 
123

>  <inspiration_ids>  (248) 
[123, 99]

>  <energy_score>  (248) 
325.56547251563484

>  <distance_score>  (248) 
13.821362834789994

>  <path>  (248) 
/opt/xchem-fragalysis-2/maxwin/BulkDock/SCRATCH/511015/C28366-P123/C28366-P123.minimised.mol

>  <scratch_subdir>  (248) 
/opt/xchem-fragalysis-2/maxwin/BulkDock/SCRATCH/511015/C28366-P123

>  <fragmenstein_runtime>  (248) 
53.206546783447266

>  <fragmenstein_outcome>  (248) 
too moved

>  <fragmenstein_mode>  (248) 
expansion

>  <fragmenstein_error>  (248) 


$$$$
C28366-P99
     RDKit          3D

 49 51  0  0  0  0  0  0  0  0999 V2000
   -9.8777   -5.3579   19.0118 C   0  0  0  0  0  0  0  0  0  0  0  0
  -11.1116   -4.8734   19.7825 C   0  0  0  0  0  0  0  0  0  0  0  0
  -12.4285   -5.7473   19.7759 C   0  0  0  0  0  0  0  0  0  0  0  0
  -12.9270   -6.1372   18.3482 C   0  0  0  0  0  0  0  0  0  0  0  0
  -12.2061   -5.4829   17.2643 N   0  0  0  0  0  0  0  0  0  0  0  0
  -12.2314   -4.1244   16.8020 C   0  0  0  0  0  0  0  0  0  0  0  0
  -12.9094   -3.2003   17.1365 O   0  0  0  0  0  0  0  0  0  0  0  0
  -11.1576   -3.8605   15.8200 C   0  0  0  0  0  0  0  0  0  0  0  0
  -10.5863   -2.6025   15.4869 C   0  0  0  0  0  0  0  0  0  0  0  0
   -9.5723   -2.6915   14.6205 N   0  0  0  0  0  0  0  0  0  0  0  0
   -9.5099   -3.9995   14.3452 N   0  0  0  0  0  0  0  0  0  0  0  0
  -10.4502   -4.7299   15.0126 C   0  0  0  0  0  0  0  0  0  0  0  0
  -12.4765   -6.8838   20.7633 N   0  0  0  0  0  0  0  0  0  0  0  0
  -13.5967   -7.4930   21.4604 C   0  0  0  0  0  0  0  0  0  0  0  0
  -14.7751   -7.2956   21.3651 O   0  0  0  0  0  0  0  0  0  0  0  0
  -13.1888   -8.5251   22.5414 C   0  0  0  0  0  0  0  0  0  0  0  0
  -14.0422   -9.5582   23.0762 C   0  0  0  0  0  0  0  0  0  0  0  0
  -13.3362  -10.1989   24.0687 C   0  0  0  0  0  0  0  0  0  0  0  0
  -12.1393   -9.5545   24.1299 N   0  0  0  0  0  0  0  0  0  0  0  0
  -11.0665   -9.7171   25.1036 C   0  0  0  0  0  0  0  0  0  0  0  0
  -11.0981   -8.5877   26.1536 C   0  0  0  0  0  0  0  0  0  0  0  0
  -11.0849   -9.2724   27.5165 C   0  0  0  0  0  0  0  0  0  0  0  0
  -11.6965  -10.6365   27.2533 C   0  0  0  0  0  0  0  0  0  0  0  0
  -11.0865  -11.0214   25.9145 C   0  0  0  0  0  0  0  0  0  0  0  0
  -12.0053   -8.5627   23.2030 N   0  0  0  0  0  0  0  0  0  0  0  0
   -9.8670   -6.4466   18.9368 H   0  0  0  0  0  0  0  0  0  0  0  0
   -8.9698   -5.0458   19.5397 H   0  0  0  0  0  0  0  0  0  0  0  0
   -9.8071   -4.9274   18.0142 H   0  0  0  0  0  0  0  0  0  0  0  0
  -11.3599   -3.8690   19.4170 H   0  0  0  0  0  0  0  0  0  0  0  0
  -10.8317   -4.7158   20.8320 H   0  0  0  0  0  0  0  0  0  0  0  0
  -13.2030   -5.0727   20.1691 H   0  0  0  0  0  0  0  0  0  0  0  0
  -13.9848   -5.8699   18.2492 H   0  0  0  0  0  0  0  0  0  0  0  0
  -12.8380   -7.2141   18.1930 H   0  0  0  0  0  0  0  0  0  0  0  0
  -11.4455   -5.9699   16.8136 H   0  0  0  0  0  0  0  0  0  0  0  0
  -10.8625   -1.6295   15.8759 H   0  0  0  0  0  0  0  0  0  0  0  0
   -8.8458   -4.3164   13.6457 H   0  0  0  0  0  0  0  0  0  0  0  0
  -10.5632   -5.7768   14.8082 H   0  0  0  0  0  0  0  0  0  0  0  0
  -11.6163   -7.3583   21.0390 H   0  0  0  0  0  0  0  0  0  0  0  0
  -15.0523   -9.7676   22.7518 H   0  0  0  0  0  0  0  0  0  0  0  0
  -13.6147  -11.0065   24.7284 H   0  0  0  0  0  0  0  0  0  0  0  0
  -10.1365   -9.6774   24.5213 H   0  0  0  0  0  0  0  0  0  0  0  0
  -10.2364   -7.9198   26.0462 H   0  0  0  0  0  0  0  0  0  0  0  0
  -12.0001   -7.9702   26.0618 H   0  0  0  0  0  0  0  0  0  0  0  0
  -11.6381   -8.7053   28.2707 H   0  0  0  0  0  0  0  0  0  0  0  0
  -10.0520   -9.3839   27.8677 H   0  0  0  0  0  0  0  0  0  0  0  0
  -11.4569  -11.3570   28.0405 H   0  0  0  0  0  0  0  0  0  0  0  0
  -12.7868  -10.5598   27.1752 H   0  0  0  0  0  0  0  0  0  0  0  0
  -11.6155  -11.8483   25.4362 H   0  0  0  0  0  0  0  0  0  0  0  0
  -10.0544  -11.3495   26.0862 H   0  0  0  0  0  0  0  0  0  0  0  0
  1  2  1  0
  2  3  1  0
  3  4  1  0
  4  5  1  0
  5  6  1  0
  6  7  2  0
  6  8  1  0
  8  9  1  0
  9 10  2  0
 10 11  1  0
 11 12  1  0
  3 13  1  0
 13 14  1  0
 14 15  2  0
 14 16  1  0
 16 17  1  0
 17 18  2  0
 18 19  1  0
 19 20  1  0
 20 21  1  0
 21 22  1  0
 22 23  1  0
 23 24  1  0
 19 25  1  0
 12  8  2  0
 25 16  2  0
 24 20  1  0
  1 26  1  0
  1 27  1  0
  1 28  1  0
  2 29  1  0
  2 30  1  0
  3 31  1  0
  4 32  1  0
  4 33  1  0
  5 34  1  0
  9 35  1  0
 11 36  1  0
 12 37  1  0
 13 38  1  0
 17 39  1  0
 18 40  1  0
 20 41  1  0
 21 42  1  0
 21 43  1  0
 22 44  1  0
 22 45  1  0
 23 46  1  0
 23 47  1  0
 24 48  1  0
 24 49  1  0
M  END
>  <Energy>  (249) 
60.625907376584323

>  <compound_id>  (249) 
28366

>  <target_id>  (249) 
1

>  <reference_id>  (249) 
99

>  <inspiration_ids>  (249) 
[123, 99]

>  <energy_score>  (249) 
-9.365303631070901

>  <distance_score>  (249) 
14.01032111409925

>  <path>  (249) 
/opt/xchem-fragalysis-2/maxwin/BulkDock/SCRATCH/511015/C28366-P99/C28366-P99.minimised.mol

>  <scratch_subdir>  (249) 
/opt/xchem-fragalysis-2/maxwin/BulkDock/SCRATCH/511015/C28366-P99

>  <fragmenstein_runtime>  (249) 
75.15366268157959

>  <fragmenstein_outcome>  (249) 
too moved

>  <fragmenstein_mode>  (249) 
expansion

>  <fragmenstein_error>  (249) 


$$$$
C28367-P123
     RDKit          3D

 47 49  0  0  0  0  0  0  0  0999 V2000
   -7.8144   -8.2617    8.5708 O   0  0  0  0  0  0  0  0  0  0  0  0
   -8.9553   -8.0965    8.1254 C   0  0  0  0  0  0  0  0  0  0  0  0
  -10.4034   -9.1136    8.2823 N   0  0  0  0  0  0  0  0  0  0  0  0
  -10.6726  -10.3738    9.0861 C   0  0  0  0  0  0  0  0  0  0  0  0
  -11.0432  -10.6457   10.7371 C   0  0  0  0  0  0  0  0  0  0  0  0
  -10.3210  -10.0014   11.7667 O   0  0  0  0  0  0  0  0  0  0  0  0
  -11.0528  -12.1874   11.1065 C   0  0  0  0  0  0  0  0  0  0  0  0
   -9.9454  -12.6917   11.9414 N   0  0  0  0  0  0  0  0  0  0  0  0
   -9.6339  -14.0339   12.3987 C   0  0  0  0  0  0  0  0  0  0  0  0
  -10.1542  -15.0823   12.1476 O   0  0  0  0  0  0  0  0  0  0  0  0
   -8.4601  -14.0972   13.3918 C   0  0  0  0  0  0  0  0  0  0  0  0
   -7.8772  -13.0802   14.2094 C   0  0  0  0  0  0  0  0  0  0  0  0
   -6.8911  -13.6885   14.9612 C   0  0  0  0  0  0  0  0  0  0  0  0
   -6.8973  -15.0012   14.5912 N   0  0  0  0  0  0  0  0  0  0  0  0
   -5.9438  -16.0192   15.0137 C   0  0  0  0  0  0  0  0  0  0  0  0
   -6.5934  -17.2356   15.6832 C   0  0  0  0  0  0  0  0  0  0  0  0
   -6.6705  -18.2814   14.5823 C   0  0  0  0  0  0  0  0  0  0  0  0
   -5.3587  -18.0913   13.8399 C   0  0  0  0  0  0  0  0  0  0  0  0
   -5.1215  -16.5824   13.8393 C   0  0  0  0  0  0  0  0  0  0  0  0
   -7.8492  -15.2773   13.6786 N   0  0  0  0  0  0  0  0  0  0  0  0
   -9.1992   -6.3094    7.2472 C   0  0  0  0  0  0  0  0  0  0  0  0
   -9.7887   -5.7554    6.0357 C   0  0  0  0  0  0  0  0  0  0  0  0
   -9.6777   -4.4344    5.8300 N   0  0  0  0  0  0  0  0  0  0  0  0
   -8.8078   -4.0709    6.7511 N   0  0  0  0  0  0  0  0  0  0  0  0
   -8.4024   -5.1189    7.5155 C   0  0  0  0  0  0  0  0  0  0  0  0
  -11.1457   -8.7463    7.7315 H   0  0  0  0  0  0  0  0  0  0  0  0
  -10.6052  -11.3226    8.4845 H   0  0  0  0  0  0  0  0  0  0  0  0
  -11.7843  -10.2868    9.0360 H   0  0  0  0  0  0  0  0  0  0  0  0
  -12.0817  -10.3009   10.8649 H   0  0  0  0  0  0  0  0  0  0  0  0
  -10.8174  -10.1136   12.5946 H   0  0  0  0  0  0  0  0  0  0  0  0
  -11.9529  -12.3825   11.7027 H   0  0  0  0  0  0  0  0  0  0  0  0
  -11.1367  -12.8210   10.2178 H   0  0  0  0  0  0  0  0  0  0  0  0
   -9.3478  -12.0314   12.4228 H   0  0  0  0  0  0  0  0  0  0  0  0
   -8.1456  -12.0347   14.2574 H   0  0  0  0  0  0  0  0  0  0  0  0
   -6.1998  -13.2980   15.6945 H   0  0  0  0  0  0  0  0  0  0  0  0
   -5.2758  -15.5282   15.7327 H   0  0  0  0  0  0  0  0  0  0  0  0
   -7.5664  -17.0306   16.1351 H   0  0  0  0  0  0  0  0  0  0  0  0
   -5.9338  -17.6053   16.4787 H   0  0  0  0  0  0  0  0  0  0  0  0
   -7.5195  -18.0850   13.9183 H   0  0  0  0  0  0  0  0  0  0  0  0
   -6.7769  -19.2945   14.9807 H   0  0  0  0  0  0  0  0  0  0  0  0
   -5.3905  -18.5052   12.8278 H   0  0  0  0  0  0  0  0  0  0  0  0
   -4.5472  -18.5925   14.3813 H   0  0  0  0  0  0  0  0  0  0  0  0
   -5.4181  -16.1518   12.8760 H   0  0  0  0  0  0  0  0  0  0  0  0
   -4.0547  -16.3675   13.9683 H   0  0  0  0  0  0  0  0  0  0  0  0
  -10.2465   -6.2962    5.2268 H   0  0  0  0  0  0  0  0  0  0  0  0
   -8.5060   -3.1030    6.7863 H   0  0  0  0  0  0  0  0  0  0  0  0
   -7.6297   -4.9164    8.2415 H   0  0  0  0  0  0  0  0  0  0  0  0
  1  2  2  0
  2  3  1  0
  3  4  1  0
  4  5  1  0
  5  6  1  0
  5  7  1  0
  7  8  1  0
  8  9  1  0
  9 10  2  0
  9 11  1  0
 11 12  1  0
 12 13  2  0
 13 14  1  0
 14 15  1  0
 15 16  1  0
 16 17  1  0
 17 18  1  0
 18 19  1  0
 14 20  1  0
  2 21  1  0
 21 22  1  0
 22 23  2  0
 23 24  1  0
 24 25  1  0
 20 11  2  0
 25 21  2  0
 19 15  1  0
  3 26  1  0
  4 27  1  0
  4 28  1  0
  5 29  1  0
  6 30  1  0
  7 31  1  0
  7 32  1  0
  8 33  1  0
 12 34  1  0
 13 35  1  0
 15 36  1  0
 16 37  1  0
 16 38  1  0
 17 39  1  0
 17 40  1  0
 18 41  1  0
 18 42  1  0
 19 43  1  0
 19 44  1  0
 22 45  1  0
 24 46  1  0
 25 47  1  0
M  END
>  <Energy>  (250) 
266.37779114239953

>  <compound_id>  (250) 
28367

>  <target_id>  (250) 
1

>  <reference_id>  (250) 
123

>  <inspiration_ids>  (250) 
[123, 99]

>  <energy_score>  (250) 
165.38278756175055

>  <distance_score>  (250) 
14.245982899723945

>  <path>  (250) 
/opt/xchem-fragalysis-2/maxwin/BulkDock/SCRATCH/511015/C28367-P123/C28367-P123.minimised.mol

>  <scratch_subdir>  (250) 
/opt/xchem-fragalysis-2/maxwin/BulkDock/SCRATCH/511015/C28367-P123

>  <fragmenstein_runtime>  (250) 
53.38143301010132

>  <fragmenstein_outcome>  (250) 
too moved

>  <fragmenstein_mode>  (250) 
expansion

>  <fragmenstein_error>  (250) 


$$$$
C28367-P99
     RDKit          3D

 47 49  0  0  0  0  0  0  0  0999 V2000
   -9.3429   -9.7757   15.9047 O   0  0  0  0  0  0  0  0  0  0  0  0
   -8.1621   -9.9115   16.0029 C   0  0  0  0  0  0  0  0  0  0  0  0
   -7.3767  -10.5457   17.0159 N   0  0  0  0  0  0  0  0  0  0  0  0
   -7.7671  -11.1514   18.3140 C   0  0  0  0  0  0  0  0  0  0  0  0
   -8.4380  -12.5591   18.1500 C   0  0  0  0  0  0  0  0  0  0  0  0
   -7.4922  -13.0527   17.1647 O   0  0  0  0  0  0  0  0  0  0  0  0
   -8.9569  -13.9308   19.3795 C   0  0  0  0  0  0  0  0  0  0  0  0
   -9.3795  -15.7474   18.9339 N   0  0  0  0  0  0  0  0  0  0  0  0
  -11.0335  -16.7801   19.0420 C   0  0  0  0  0  0  0  0  0  0  0  0
  -12.0710  -16.2376   19.5899 O   0  0  0  0  0  0  0  0  0  0  0  0
  -11.1097  -18.5027   18.1594 C   0  0  0  0  0  0  0  0  0  0  0  0
  -12.1150  -19.7054   18.3024 C   0  0  0  0  0  0  0  0  0  0  0  0
  -11.5843  -20.7846   17.6580 C   0  0  0  0  0  0  0  0  0  0  0  0
  -10.4547  -20.3173   17.0813 N   0  0  0  0  0  0  0  0  0  0  0  0
   -9.5624  -21.1011   16.2326 C   0  0  0  0  0  0  0  0  0  0  0  0
   -9.4815  -20.5614   14.7922 C   0  0  0  0  0  0  0  0  0  0  0  0
   -8.0036  -20.2844   14.5267 C   0  0  0  0  0  0  0  0  0  0  0  0
   -7.3865  -20.1026   15.9029 C   0  0  0  0  0  0  0  0  0  0  0  0
   -8.1176  -21.1360   16.7470 C   0  0  0  0  0  0  0  0  0  0  0  0
  -10.2276  -18.9994   17.2453 N   0  0  0  0  0  0  0  0  0  0  0  0
   -7.3282   -9.4257   14.8961 C   0  0  0  0  0  0  0  0  0  0  0  0
   -6.2065   -8.5647   14.8650 C   0  0  0  0  0  0  0  0  0  0  0  0
   -5.7607   -8.3203   13.6272 N   0  0  0  0  0  0  0  0  0  0  0  0
   -6.6032   -9.0209   12.8454 N   0  0  0  0  0  0  0  0  0  0  0  0
   -7.5597   -9.6817   13.5588 C   0  0  0  0  0  0  0  0  0  0  0  0
   -6.3940  -10.3982   16.8129 H   0  0  0  0  0  0  0  0  0  0  0  0
   -8.4822  -10.4235   18.6828 H   0  0  0  0  0  0  0  0  0  0  0  0
   -6.8338  -11.2053   18.8796 H   0  0  0  0  0  0  0  0  0  0  0  0
   -9.4097  -12.2577   17.7359 H   0  0  0  0  0  0  0  0  0  0  0  0
   -7.4871  -12.4030   16.4370 H   0  0  0  0  0  0  0  0  0  0  0  0
   -9.4728  -13.4758   20.1641 H   0  0  0  0  0  0  0  0  0  0  0  0
   -7.9841  -13.9644   19.7788 H   0  0  0  0  0  0  0  0  0  0  0  0
   -8.6966  -16.2853   18.3993 H   0  0  0  0  0  0  0  0  0  0  0  0
  -12.9995  -19.7536   18.9213 H   0  0  0  0  0  0  0  0  0  0  0  0
  -11.9100  -21.8114   17.5742 H   0  0  0  0  0  0  0  0  0  0  0  0
   -9.9652  -22.1219   16.2242 H   0  0  0  0  0  0  0  0  0  0  0  0
   -9.8637  -21.2967   14.0752 H   0  0  0  0  0  0  0  0  0  0  0  0
  -10.0704  -19.6476   14.6531 H   0  0  0  0  0  0  0  0  0  0  0  0
   -7.5499  -21.1477   14.0251 H   0  0  0  0  0  0  0  0  0  0  0  0
   -7.8557  -19.4098   13.8865 H   0  0  0  0  0  0  0  0  0  0  0  0
   -6.3049  -20.2649   15.8957 H   0  0  0  0  0  0  0  0  0  0  0  0
   -7.5760  -19.0900   16.2761 H   0  0  0  0  0  0  0  0  0  0  0  0
   -8.0219  -20.9432   17.8194 H   0  0  0  0  0  0  0  0  0  0  0  0
   -7.6876  -22.1264   16.5505 H   0  0  0  0  0  0  0  0  0  0  0  0
   -5.7044   -8.0907   15.6986 H   0  0  0  0  0  0  0  0  0  0  0  0
   -6.4933   -8.9681   11.8362 H   0  0  0  0  0  0  0  0  0  0  0  0
   -8.3384  -10.2533   13.0775 H   0  0  0  0  0  0  0  0  0  0  0  0
  1  2  2  0
  2  3  1  0
  3  4  1  0
  4  5  1  0
  5  6  1  0
  5  7  1  0
  7  8  1  0
  8  9  1  0
  9 10  2  0
  9 11  1  0
 11 12  1  0
 12 13  2  0
 13 14  1  0
 14 15  1  0
 15 16  1  0
 16 17  1  0
 17 18  1  0
 18 19  1  0
 14 20  1  0
  2 21  1  0
 21 22  1  0
 22 23  2  0
 23 24  1  0
 24 25  1  0
 20 11  2  0
 25 21  2  0
 19 15  1  0
  3 26  1  0
  4 27  1  0
  4 28  1  0
  5 29  1  0
  6 30  1  0
  7 31  1  0
  7 32  1  0
  8 33  1  0
 12 34  1  0
 13 35  1  0
 15 36  1  0
 16 37  1  0
 16 38  1  0
 17 39  1  0
 17 40  1  0
 18 41  1  0
 18 42  1  0
 19 43  1  0
 19 44  1  0
 22 45  1  0
 24 46  1  0
 25 47  1  0
M  END
>  <Energy>  (251) 
342.0600139227837

>  <compound_id>  (251) 
28367

>  <target_id>  (251) 
1

>  <reference_id>  (251) 
99

>  <inspiration_ids>  (251) 
[123, 99]

>  <energy_score>  (251) 
241.06501034211942

>  <distance_score>  (251) 
14.045621980717948

>  <path>  (251) 
/opt/xchem-fragalysis-2/maxwin/BulkDock/SCRATCH/511015/C28367-P99/C28367-P99.minimised.mol

>  <scratch_subdir>  (251) 
/opt/xchem-fragalysis-2/maxwin/BulkDock/SCRATCH/511015/C28367-P99

>  <fragmenstein_runtime>  (251) 
47.286863565444946

>  <fragmenstein_outcome>  (251) 
too moved

>  <fragmenstein_mode>  (251) 
expansion

>  <fragmenstein_error>  (251) 


$$$$
C28368-P123
     RDKit          3D

 50 52  0  0  0  0  0  0  0  0999 V2000
   -6.8176   -5.6774   20.3446 C   0  0  0  0  0  0  0  0  0  0  0  0
   -5.9598   -6.7250   19.5758 C   0  0  0  0  0  0  0  0  0  0  0  0
   -5.5982   -8.0555   20.3442 C   0  0  0  0  0  0  0  0  0  0  0  0
   -6.0533   -8.0932   21.7625 N   0  0  0  0  0  0  0  0  0  0  0  0
   -5.6545   -9.3636   22.4781 C   0  0  0  0  0  0  0  0  0  0  0  0
   -6.3542   -9.6484   23.8474 C   0  0  0  0  0  0  0  0  0  0  0  0
   -7.6608   -9.3063   24.2995 C   0  0  0  0  0  0  0  0  0  0  0  0
   -7.7669   -9.7901   25.5877 C   0  0  0  0  0  0  0  0  0  0  0  0
   -6.5797  -10.4079   25.8524 N   0  0  0  0  0  0  0  0  0  0  0  0
   -6.1148  -10.9240   27.1262 C   0  0  0  0  0  0  0  0  0  0  0  0
   -7.0686  -11.9219   27.7989 C   0  0  0  0  0  0  0  0  0  0  0  0
   -6.8636  -11.6891   29.2873 C   0  0  0  0  0  0  0  0  0  0  0  0
   -6.7193  -10.1799   29.3758 C   0  0  0  0  0  0  0  0  0  0  0  0
   -5.8607   -9.8179   28.1685 C   0  0  0  0  0  0  0  0  0  0  0  0
   -5.7278  -10.3619   24.8085 N   0  0  0  0  0  0  0  0  0  0  0  0
   -6.0083   -6.8060   18.0353 N   0  0  0  0  0  0  0  0  0  0  0  0
   -7.4291   -7.2049   18.3124 C   0  0  0  0  0  0  0  0  0  0  0  0
   -5.9739   -5.7776   17.0489 C   0  0  0  0  0  0  0  0  0  0  0  0
   -5.9895   -4.5829   17.1673 O   0  0  0  0  0  0  0  0  0  0  0  0
   -5.8597   -6.3041   15.6797 C   0  0  0  0  0  0  0  0  0  0  0  0
   -5.7684   -5.5101   14.5123 C   0  0  0  0  0  0  0  0  0  0  0  0
   -5.6342   -6.2187   13.3905 N   0  0  0  0  0  0  0  0  0  0  0  0
   -5.6799   -7.4887   13.8201 N   0  0  0  0  0  0  0  0  0  0  0  0
   -5.8068   -7.5912   15.1802 C   0  0  0  0  0  0  0  0  0  0  0  0
   -6.3295   -5.4024   21.2868 H   0  0  0  0  0  0  0  0  0  0  0  0
   -7.8129   -6.0580   20.5980 H   0  0  0  0  0  0  0  0  0  0  0  0
   -6.9351   -4.7581   19.7615 H   0  0  0  0  0  0  0  0  0  0  0  0
   -4.9892   -6.2000   19.6393 H   0  0  0  0  0  0  0  0  0  0  0  0
   -4.5064   -8.1713   20.3261 H   0  0  0  0  0  0  0  0  0  0  0  0
   -5.9942   -8.9310   19.8175 H   0  0  0  0  0  0  0  0  0  0  0  0
   -7.0591   -7.9890   21.8165 H   0  0  0  0  0  0  0  0  0  0  0  0
   -5.8801  -10.2152   21.8285 H   0  0  0  0  0  0  0  0  0  0  0  0
   -4.5723   -9.3250   22.6470 H   0  0  0  0  0  0  0  0  0  0  0  0
   -8.4110   -8.7376   23.7723 H   0  0  0  0  0  0  0  0  0  0  0  0
   -8.5568   -9.7172   26.3210 H   0  0  0  0  0  0  0  0  0  0  0  0
   -5.1602  -11.4293   26.9318 H   0  0  0  0  0  0  0  0  0  0  0  0
   -8.1162  -11.7283   27.5426 H   0  0  0  0  0  0  0  0  0  0  0  0
   -6.8486  -12.9554   27.5148 H   0  0  0  0  0  0  0  0  0  0  0  0
   -7.6987  -12.0640   29.8857 H   0  0  0  0  0  0  0  0  0  0  0  0
   -5.9454  -12.1821   29.6276 H   0  0  0  0  0  0  0  0  0  0  0  0
   -7.7028   -9.7025   29.2903 H   0  0  0  0  0  0  0  0  0  0  0  0
   -6.2665   -9.8581   30.3180 H   0  0  0  0  0  0  0  0  0  0  0  0
   -6.0844   -8.8075   27.8105 H   0  0  0  0  0  0  0  0  0  0  0  0
   -4.8021   -9.8312   28.4567 H   0  0  0  0  0  0  0  0  0  0  0  0
   -7.7801   -7.6319   17.3600 H   0  0  0  0  0  0  0  0  0  0  0  0
   -7.6385   -8.0208   19.0144 H   0  0  0  0  0  0  0  0  0  0  0  0
   -8.0989   -6.3412   18.4304 H   0  0  0  0  0  0  0  0  0  0  0  0
   -5.7835   -4.4296   14.4710 H   0  0  0  0  0  0  0  0  0  0  0  0
   -5.6060   -8.2337   13.1323 H   0  0  0  0  0  0  0  0  0  0  0  0
   -5.8344   -8.5565   15.6649 H   0  0  0  0  0  0  0  0  0  0  0  0
  1  2  1  0
  2  3  1  0
  3  4  1  0
  4  5  1  0
  5  6  1  0
  6  7  1  0
  7  8  2  0
  8  9  1  0
  9 10  1  0
 10 11  1  0
 11 12  1  0
 12 13  1  0
 13 14  1  0
  9 15  1  0
  2 16  1  0
 16 17  1  0
 16 18  1  0
 18 19  2  0
 18 20  1  0
 20 21  1  0
 21 22  2  0
 22 23  1  0
 23 24  1  0
 15  6  2  0
 24 20  2  0
 14 10  1  0
  1 25  1  0
  1 26  1  0
  1 27  1  0
  2 28  1  0
  3 29  1  0
  3 30  1  0
  4 31  1  0
  5 32  1  0
  5 33  1  0
  7 34  1  0
  8 35  1  0
 10 36  1  0
 11 37  1  0
 11 38  1  0
 12 39  1  0
 12 40  1  0
 13 41  1  0
 13 42  1  0
 14 43  1  0
 14 44  1  0
 17 45  1  0
 17 46  1  0
 17 47  1  0
 21 48  1  0
 23 49  1  0
 24 50  1  0
M  END
>  <Energy>  (252) 
138.12790607875394

>  <compound_id>  (252) 
28368

>  <target_id>  (252) 
1

>  <reference_id>  (252) 
123

>  <inspiration_ids>  (252) 
[123, 99]

>  <energy_score>  (252) 
45.8033908396817

>  <distance_score>  (252) 
13.642633377095665

>  <path>  (252) 
/opt/xchem-fragalysis-2/maxwin/BulkDock/SCRATCH/511015/C28368-P123/C28368-P123.minimised.mol

>  <scratch_subdir>  (252) 
/opt/xchem-fragalysis-2/maxwin/BulkDock/SCRATCH/511015/C28368-P123

>  <fragmenstein_runtime>  (252) 
53.28921151161194

>  <fragmenstein_outcome>  (252) 
too moved

>  <fragmenstein_mode>  (252) 
expansion

>  <fragmenstein_error>  (252) 


$$$$
C28368-P99
     RDKit          3D

 50 52  0  0  0  0  0  0  0  0999 V2000
   -9.1263  -12.2757   18.5291 C   0  0  0  0  0  0  0  0  0  0  0  0
   -7.8316  -13.1583   18.7896 C   0  0  0  0  0  0  0  0  0  0  0  0
   -8.5012  -14.6334   19.9474 C   0  0  0  0  0  0  0  0  0  0  0  0
   -7.8575  -16.2194   21.0804 N   0  0  0  0  0  0  0  0  0  0  0  0
   -7.6745  -16.8615   23.0220 C   0  0  0  0  0  0  0  0  0  0  0  0
   -8.4784  -16.3123   25.0083 C   0  0  0  0  0  0  0  0  0  0  0  0
   -8.0026  -15.9996   26.6505 C   0  0  0  0  0  0  0  0  0  0  0  0
   -8.2328  -17.0307   27.8162 C   0  0  0  0  0  0  0  0  0  0  0  0
   -8.9235  -18.2904   27.3671 N   0  0  0  0  0  0  0  0  0  0  0  0
   -9.0184  -20.2324   27.8917 C   0  0  0  0  0  0  0  0  0  0  0  0
   -7.8383  -21.6368   27.2993 C   0  0  0  0  0  0  0  0  0  0  0  0
   -8.6225  -23.0246   26.9744 C   0  0  0  0  0  0  0  0  0  0  0  0
  -10.0222  -22.9179   27.3955 C   0  0  0  0  0  0  0  0  0  0  0  0
  -10.2497  -21.5237   26.9812 C   0  0  0  0  0  0  0  0  0  0  0  0
   -9.5721  -17.2638   25.9929 N   0  0  0  0  0  0  0  0  0  0  0  0
   -7.3257  -12.6363   17.1643 N   0  0  0  0  0  0  0  0  0  0  0  0
   -6.4587  -11.7027   17.9668 C   0  0  0  0  0  0  0  0  0  0  0  0
   -6.5332  -13.3015   16.1589 C   0  0  0  0  0  0  0  0  0  0  0  0
   -5.9339  -14.3458   16.1976 O   0  0  0  0  0  0  0  0  0  0  0  0
   -6.5553  -12.4629   14.9211 C   0  0  0  0  0  0  0  0  0  0  0  0
   -7.3108  -11.2855   14.6250 C   0  0  0  0  0  0  0  0  0  0  0  0
   -7.0423  -10.7556   13.4269 N   0  0  0  0  0  0  0  0  0  0  0  0
   -6.1497  -11.6120   12.9090 N   0  0  0  0  0  0  0  0  0  0  0  0
   -5.8222  -12.6334   13.7589 C   0  0  0  0  0  0  0  0  0  0  0  0
   -9.4074  -12.0614   17.4984 H   0  0  0  0  0  0  0  0  0  0  0  0
   -9.0166  -11.2257   18.7740 H   0  0  0  0  0  0  0  0  0  0  0  0
   -9.9761  -12.8038   18.9135 H   0  0  0  0  0  0  0  0  0  0  0  0
   -7.0748  -12.8226   19.4773 H   0  0  0  0  0  0  0  0  0  0  0  0
   -8.9390  -13.8049   20.5151 H   0  0  0  0  0  0  0  0  0  0  0  0
   -9.1010  -15.2408   19.2513 H   0  0  0  0  0  0  0  0  0  0  0  0
   -7.0157  -16.6493   20.6815 H   0  0  0  0  0  0  0  0  0  0  0  0
   -7.9307  -17.8868   22.5637 H   0  0  0  0  0  0  0  0  0  0  0  0
   -6.7305  -17.4227   23.2439 H   0  0  0  0  0  0  0  0  0  0  0  0
   -7.3541  -15.1448   26.8133 H   0  0  0  0  0  0  0  0  0  0  0  0
   -7.8150  -17.0203   28.8126 H   0  0  0  0  0  0  0  0  0  0  0  0
   -9.6172  -20.4917   28.7807 H   0  0  0  0  0  0  0  0  0  0  0  0
   -6.9337  -21.2616   26.7840 H   0  0  0  0  0  0  0  0  0  0  0  0
   -7.3337  -22.2856   27.9556 H   0  0  0  0  0  0  0  0  0  0  0  0
   -8.2627  -23.8130   27.5971 H   0  0  0  0  0  0  0  0  0  0  0  0
   -8.5304  -23.4224   25.9558 H   0  0  0  0  0  0  0  0  0  0  0  0
  -10.2094  -23.0477   28.4606 H   0  0  0  0  0  0  0  0  0  0  0  0
  -10.6623  -23.6286   26.8619 H   0  0  0  0  0  0  0  0  0  0  0  0
  -10.2576  -21.5066   25.8970 H   0  0  0  0  0  0  0  0  0  0  0  0
  -11.3286  -21.4508   27.2319 H   0  0  0  0  0  0  0  0  0  0  0  0
   -5.6166  -12.1857   18.4706 H   0  0  0  0  0  0  0  0  0  0  0  0
   -5.9459  -11.0747   17.2232 H   0  0  0  0  0  0  0  0  0  0  0  0
   -6.9854  -10.9572   18.5675 H   0  0  0  0  0  0  0  0  0  0  0  0
   -8.0408  -10.7958   15.2574 H   0  0  0  0  0  0  0  0  0  0  0  0
   -5.7993  -11.4362   11.9726 H   0  0  0  0  0  0  0  0  0  0  0  0
   -5.1032  -13.3892   13.4763 H   0  0  0  0  0  0  0  0  0  0  0  0
  1  2  1  0
  2  3  1  0
  3  4  1  0
  4  5  1  0
  5  6  1  0
  6  7  1  0
  7  8  2  0
  8  9  1  0
  9 10  1  0
 10 11  1  0
 11 12  1  0
 12 13  1  0
 13 14  1  0
  9 15  1  0
  2 16  1  0
 16 17  1  0
 16 18  1  0
 18 19  2  0
 18 20  1  0
 20 21  1  0
 21 22  2  0
 22 23  1  0
 23 24  1  0
 15  6  2  0
 24 20  2  0
 14 10  1  0
  1 25  1  0
  1 26  1  0
  1 27  1  0
  2 28  1  0
  3 29  1  0
  3 30  1  0
  4 31  1  0
  5 32  1  0
  5 33  1  0
  7 34  1  0
  8 35  1  0
 10 36  1  0
 11 37  1  0
 11 38  1  0
 12 39  1  0
 12 40  1  0
 13 41  1  0
 13 42  1  0
 14 43  1  0
 14 44  1  0
 17 45  1  0
 17 46  1  0
 17 47  1  0
 21 48  1  0
 23 49  1  0
 24 50  1  0
M  END
>  <Energy>  (253) 
1275.0447307124987

>  <compound_id>  (253) 
28368

>  <target_id>  (253) 
1

>  <reference_id>  (253) 
99

>  <inspiration_ids>  (253) 
[123, 99]

>  <energy_score>  (253) 
1182.720215473424

>  <distance_score>  (253) 
13.492766057052307

>  <path>  (253) 
/opt/xchem-fragalysis-2/maxwin/BulkDock/SCRATCH/511015/C28368-P99/C28368-P99.minimised.mol

>  <scratch_subdir>  (253) 
/opt/xchem-fragalysis-2/maxwin/BulkDock/SCRATCH/511015/C28368-P99

>  <fragmenstein_runtime>  (253) 
39.01789355278015

>  <fragmenstein_outcome>  (253) 
too moved

>  <fragmenstein_mode>  (253) 
expansion

>  <fragmenstein_error>  (253) 


$$$$
C28369-P123
     RDKit          3D

 47 49  0  0  0  0  0  0  0  0999 V2000
   -5.7302  -12.4851   18.7949 O   0  0  0  0  0  0  0  0  0  0  0  0
   -6.4054  -12.3781   17.8071 C   0  0  0  0  0  0  0  0  0  0  0  0
   -7.3369  -13.6548   16.8833 N   0  0  0  0  0  0  0  0  0  0  0  0
   -7.3928  -15.3302   17.0619 C   0  0  0  0  0  0  0  0  0  0  0  0
   -7.2460  -16.5952   15.8536 C   0  0  0  0  0  0  0  0  0  0  0  0
   -7.4513  -16.3137   14.2976 C   0  0  0  0  0  0  0  0  0  0  0  0
   -8.2795  -17.2022   13.5691 O   0  0  0  0  0  0  0  0  0  0  0  0
   -7.5574  -17.9303   16.4561 N   0  0  0  0  0  0  0  0  0  0  0  0
   -6.6876  -19.0268   16.8373 C   0  0  0  0  0  0  0  0  0  0  0  0
   -5.5107  -19.1725   16.6916 O   0  0  0  0  0  0  0  0  0  0  0  0
   -7.3883  -20.0809   17.6222 C   0  0  0  0  0  0  0  0  0  0  0  0
   -8.6213  -20.7072   17.4847 C   0  0  0  0  0  0  0  0  0  0  0  0
   -8.7985  -21.5067   18.6371 C   0  0  0  0  0  0  0  0  0  0  0  0
   -7.7665  -21.4238   19.4708 N   0  0  0  0  0  0  0  0  0  0  0  0
   -6.9030  -20.5861   18.8399 N   0  0  0  0  0  0  0  0  0  0  0  0
   -5.6689  -20.2058   19.5057 C   0  0  0  0  0  0  0  0  0  0  0  0
   -4.5275  -21.2062   19.2771 C   0  0  0  0  0  0  0  0  0  0  0  0
   -3.7448  -21.2638   20.5904 C   0  0  0  0  0  0  0  0  0  0  0  0
   -4.2953  -20.1344   21.4493 C   0  0  0  0  0  0  0  0  0  0  0  0
   -5.7538  -20.0521   21.0297 C   0  0  0  0  0  0  0  0  0  0  0  0
   -6.2999  -10.6593   17.0455 C   0  0  0  0  0  0  0  0  0  0  0  0
   -6.6154   -9.6927   15.8283 C   0  0  0  0  0  0  0  0  0  0  0  0
   -5.9072   -8.5784   15.6223 N   0  0  0  0  0  0  0  0  0  0  0  0
   -4.8530   -8.8563   16.3376 N   0  0  0  0  0  0  0  0  0  0  0  0
   -4.9489  -10.1177   16.8682 C   0  0  0  0  0  0  0  0  0  0  0  0
   -7.8692  -13.2452   16.1624 H   0  0  0  0  0  0  0  0  0  0  0  0
   -8.0867  -15.6885   17.8327 H   0  0  0  0  0  0  0  0  0  0  0  0
   -6.3127  -15.3210   16.9620 H   0  0  0  0  0  0  0  0  0  0  0  0
   -6.1499  -16.7278   15.8383 H   0  0  0  0  0  0  0  0  0  0  0  0
   -7.8241  -15.3008   14.1200 H   0  0  0  0  0  0  0  0  0  0  0  0
   -6.4956  -16.4574   13.7808 H   0  0  0  0  0  0  0  0  0  0  0  0
   -7.9561  -18.1027   13.7519 H   0  0  0  0  0  0  0  0  0  0  0  0
   -8.5148  -18.1815   16.6625 H   0  0  0  0  0  0  0  0  0  0  0  0
   -9.3172  -20.5847   16.6667 H   0  0  0  0  0  0  0  0  0  0  0  0
   -9.6392  -22.1374   18.8969 H   0  0  0  0  0  0  0  0  0  0  0  0
   -5.3694  -19.2269   19.1139 H   0  0  0  0  0  0  0  0  0  0  0  0
   -3.8851  -20.8674   18.4563 H   0  0  0  0  0  0  0  0  0  0  0  0
   -4.8889  -22.2059   19.0095 H   0  0  0  0  0  0  0  0  0  0  0  0
   -3.9248  -22.2275   21.0816 H   0  0  0  0  0  0  0  0  0  0  0  0
   -2.6661  -21.1697   20.4323 H   0  0  0  0  0  0  0  0  0  0  0  0
   -4.1774  -20.3308   22.5186 H   0  0  0  0  0  0  0  0  0  0  0  0
   -3.7805  -19.1958   21.2129 H   0  0  0  0  0  0  0  0  0  0  0  0
   -6.3189  -20.8645   21.5009 H   0  0  0  0  0  0  0  0  0  0  0  0
   -6.2172  -19.1045   21.3230 H   0  0  0  0  0  0  0  0  0  0  0  0
   -7.3587   -9.8016   15.0346 H   0  0  0  0  0  0  0  0  0  0  0  0
   -4.0498   -8.2355   16.3162 H   0  0  0  0  0  0  0  0  0  0  0  0
   -4.0073  -10.4963   17.2654 H   0  0  0  0  0  0  0  0  0  0  0  0
  1  2  2  0
  2  3  1  0
  3  4  1  0
  4  5  1  0
  5  6  1  0
  6  7  1  0
  5  8  1  0
  8  9  1  0
  9 10  2  0
  9 11  1  0
 11 12  2  0
 12 13  1  0
 13 14  2  0
 14 15  1  0
 15 16  1  0
 16 17  1  0
 17 18  1  0
 18 19  1  0
 19 20  1  0
  2 21  1  0
 21 22  1  0
 22 23  2  0
 23 24  1  0
 24 25  1  0
 15 11  1  0
 20 16  1  0
 25 21  2  0
  3 26  1  0
  4 27  1  0
  4 28  1  0
  5 29  1  0
  6 30  1  0
  6 31  1  0
  7 32  1  0
  8 33  1  0
 12 34  1  0
 13 35  1  0
 16 36  1  0
 17 37  1  0
 17 38  1  0
 18 39  1  0
 18 40  1  0
 19 41  1  0
 19 42  1  0
 20 43  1  0
 20 44  1  0
 22 45  1  0
 24 46  1  0
 25 47  1  0
M  END
>  <Energy>  (254) 
251.66986820926883

>  <compound_id>  (254) 
28369

>  <target_id>  (254) 
1

>  <reference_id>  (254) 
123

>  <inspiration_ids>  (254) 
[123, 99]

>  <energy_score>  (254) 
214.9298486944283

>  <distance_score>  (254) 
14.974042342967405

>  <path>  (254) 
/opt/xchem-fragalysis-2/maxwin/BulkDock/SCRATCH/511015/C28369-P123/C28369-P123.minimised.mol

>  <scratch_subdir>  (254) 
/opt/xchem-fragalysis-2/maxwin/BulkDock/SCRATCH/511015/C28369-P123

>  <fragmenstein_runtime>  (254) 
44.13757514953613

>  <fragmenstein_outcome>  (254) 
too moved

>  <fragmenstein_mode>  (254) 
expansion

>  <fragmenstein_error>  (254) 


$$$$
C28369-P99
     RDKit          3D

 47 49  0  0  0  0  0  0  0  0999 V2000
   -4.4807  -13.6887   10.7546 O   0  0  0  0  0  0  0  0  0  0  0  0
   -5.2685  -13.8925    9.8798 C   0  0  0  0  0  0  0  0  0  0  0  0
   -6.2446  -14.9285    9.7247 N   0  0  0  0  0  0  0  0  0  0  0  0
   -6.6512  -16.0018   10.6243 C   0  0  0  0  0  0  0  0  0  0  0  0
   -6.8457  -15.5347   12.0918 C   0  0  0  0  0  0  0  0  0  0  0  0
   -7.8184  -14.2998   12.1734 C   0  0  0  0  0  0  0  0  0  0  0  0
   -7.2854  -13.0464   11.7315 O   0  0  0  0  0  0  0  0  0  0  0  0
   -7.1805  -16.6529   13.0467 N   0  0  0  0  0  0  0  0  0  0  0  0
   -6.3362  -17.6650   13.6619 C   0  0  0  0  0  0  0  0  0  0  0  0
   -5.1797  -17.9116   13.5020 O   0  0  0  0  0  0  0  0  0  0  0  0
   -7.0309  -18.4697   14.7311 C   0  0  0  0  0  0  0  0  0  0  0  0
   -8.3488  -18.9129   14.8272 C   0  0  0  0  0  0  0  0  0  0  0  0
   -8.4758  -19.6150   16.0426 C   0  0  0  0  0  0  0  0  0  0  0  0
   -7.3238  -19.6759   16.6948 N   0  0  0  0  0  0  0  0  0  0  0  0
   -6.4360  -19.0554   15.8655 N   0  0  0  0  0  0  0  0  0  0  0  0
   -5.0404  -19.1445   16.2551 C   0  0  0  0  0  0  0  0  0  0  0  0
   -4.3083  -17.8257   16.4834 C   0  0  0  0  0  0  0  0  0  0  0  0
   -2.8428  -18.2132   16.3587 C   0  0  0  0  0  0  0  0  0  0  0  0
   -2.8294  -19.2177   15.2156 C   0  0  0  0  0  0  0  0  0  0  0  0
   -4.1404  -19.9945   15.3441 C   0  0  0  0  0  0  0  0  0  0  0  0
   -5.3332  -12.8869    8.8047 C   0  0  0  0  0  0  0  0  0  0  0  0
   -4.8758  -11.5446    8.8992 C   0  0  0  0  0  0  0  0  0  0  0  0
   -5.0398  -10.8537    7.7704 N   0  0  0  0  0  0  0  0  0  0  0  0
   -5.5590  -11.7480    6.9297 N   0  0  0  0  0  0  0  0  0  0  0  0
   -5.8096  -12.9614    7.5079 C   0  0  0  0  0  0  0  0  0  0  0  0
   -6.7957  -14.7404    8.8981 H   0  0  0  0  0  0  0  0  0  0  0  0
   -7.5770  -16.4336   10.2302 H   0  0  0  0  0  0  0  0  0  0  0  0
   -5.8736  -16.7719   10.5800 H   0  0  0  0  0  0  0  0  0  0  0  0
   -5.8543  -15.1957   12.4067 H   0  0  0  0  0  0  0  0  0  0  0  0
   -8.7203  -14.5038   11.5856 H   0  0  0  0  0  0  0  0  0  0  0  0
   -8.1515  -14.1701   13.2058 H   0  0  0  0  0  0  0  0  0  0  0  0
   -6.3723  -12.9749   12.0650 H   0  0  0  0  0  0  0  0  0  0  0  0
   -8.0926  -16.6765   13.4798 H   0  0  0  0  0  0  0  0  0  0  0  0
   -9.1319  -18.7436   14.1016 H   0  0  0  0  0  0  0  0  0  0  0  0
   -9.3555  -20.0810   16.4676 H   0  0  0  0  0  0  0  0  0  0  0  0
   -5.0440  -19.6559   17.2309 H   0  0  0  0  0  0  0  0  0  0  0  0
   -4.5318  -17.4152   17.4708 H   0  0  0  0  0  0  0  0  0  0  0  0
   -4.5656  -17.0651   15.7446 H   0  0  0  0  0  0  0  0  0  0  0  0
   -2.4991  -18.6913   17.2837 H   0  0  0  0  0  0  0  0  0  0  0  0
   -2.2001  -17.3502   16.1625 H   0  0  0  0  0  0  0  0  0  0  0  0
   -1.9561  -19.8759   15.2566 H   0  0  0  0  0  0  0  0  0  0  0  0
   -2.7984  -18.6898   14.2560 H   0  0  0  0  0  0  0  0  0  0  0  0
   -4.5747  -20.2091   14.3629 H   0  0  0  0  0  0  0  0  0  0  0  0
   -3.9530  -20.9656   15.8189 H   0  0  0  0  0  0  0  0  0  0  0  0
   -4.4341  -11.0574    9.7603 H   0  0  0  0  0  0  0  0  0  0  0  0
   -5.7020  -11.4615    5.9674 H   0  0  0  0  0  0  0  0  0  0  0  0
   -6.2412  -13.7659    6.9313 H   0  0  0  0  0  0  0  0  0  0  0  0
  1  2  2  0
  2  3  1  0
  3  4  1  0
  4  5  1  0
  5  6  1  0
  6  7  1  0
  5  8  1  0
  8  9  1  0
  9 10  2  0
  9 11  1  0
 11 12  2  0
 12 13  1  0
 13 14  2  0
 14 15  1  0
 15 16  1  0
 16 17  1  0
 17 18  1  0
 18 19  1  0
 19 20  1  0
  2 21  1  0
 21 22  1  0
 22 23  2  0
 23 24  1  0
 24 25  1  0
 15 11  1  0
 20 16  1  0
 25 21  2  0
  3 26  1  0
  4 27  1  0
  4 28  1  0
  5 29  1  0
  6 30  1  0
  6 31  1  0
  7 32  1  0
  8 33  1  0
 12 34  1  0
 13 35  1  0
 16 36  1  0
 17 37  1  0
 17 38  1  0
 18 39  1  0
 18 40  1  0
 19 41  1  0
 19 42  1  0
 20 43  1  0
 20 44  1  0
 22 45  1  0
 24 46  1  0
 25 47  1  0
M  END
>  <Energy>  (255) 
18.98460621906138

>  <compound_id>  (255) 
28369

>  <target_id>  (255) 
1

>  <reference_id>  (255) 
99

>  <inspiration_ids>  (255) 
[123, 99]

>  <energy_score>  (255) 
-17.755413295775497

>  <distance_score>  (255) 
14.550628791413311

>  <path>  (255) 
/opt/xchem-fragalysis-2/maxwin/BulkDock/SCRATCH/511015/C28369-P99/C28369-P99.minimised.mol

>  <scratch_subdir>  (255) 
/opt/xchem-fragalysis-2/maxwin/BulkDock/SCRATCH/511015/C28369-P99

>  <fragmenstein_runtime>  (255) 
61.31451630592346

>  <fragmenstein_outcome>  (255) 
too moved

>  <fragmenstein_mode>  (255) 
expansion

>  <fragmenstein_error>  (255) 


$$$$
C28370-P123
     RDKit          3D

 33 35  0  0  0  0  0  0  0  0999 V2000
   -6.9575   -8.0725   17.6195 O   0  0  0  0  0  0  0  0  0  0  0  0
   -7.8366   -8.2555   18.4403 C   0  0  0  0  0  0  0  0  0  0  0  0
   -8.3062   -9.5228   19.1121 N   0  0  0  0  0  0  0  0  0  0  0  0
   -7.7934  -11.1945   18.9232 C   0  0  0  0  0  0  0  0  0  0  0  0
   -6.9246  -11.8676   18.1255 C   0  0  0  0  0  0  0  0  0  0  0  0
   -7.7544  -12.8616   17.6741 C   0  0  0  0  0  0  0  0  0  0  0  0
   -9.0194  -12.6384   17.9184 N   0  0  0  0  0  0  0  0  0  0  0  0
   -8.9583  -12.4575   19.1606 N   0  0  0  0  0  0  0  0  0  0  0  0
   -9.1325  -13.7289   20.0958 C   0  0  0  0  0  0  0  0  0  0  0  0
   -8.7457  -13.8777   21.6260 C   0  0  0  0  0  0  0  0  0  0  0  0
   -9.3865  -15.1896   22.0793 C   0  0  0  0  0  0  0  0  0  0  0  0
  -10.7668  -15.0876   21.4618 C   0  0  0  0  0  0  0  0  0  0  0  0
  -10.5282  -14.4684   20.0701 C   0  0  0  0  0  0  0  0  0  0  0  0
   -8.5945   -6.9077   19.0220 C   0  0  0  0  0  0  0  0  0  0  0  0
   -8.2097   -5.5778   18.6047 C   0  0  0  0  0  0  0  0  0  0  0  0
   -9.1046   -4.6528   18.9396 N   0  0  0  0  0  0  0  0  0  0  0  0
  -10.0476   -5.3534   19.5812 N   0  0  0  0  0  0  0  0  0  0  0  0
   -9.7688   -6.6938   19.7099 C   0  0  0  0  0  0  0  0  0  0  0  0
   -9.0738   -9.3266   19.6493 H   0  0  0  0  0  0  0  0  0  0  0  0
   -5.9261  -11.6343   17.7801 H   0  0  0  0  0  0  0  0  0  0  0  0
   -7.4818  -13.7012   17.0526 H   0  0  0  0  0  0  0  0  0  0  0  0
   -8.4989  -14.4338   19.5978 H   0  0  0  0  0  0  0  0  0  0  0  0
   -7.6620  -13.8869   21.7785 H   0  0  0  0  0  0  0  0  0  0  0  0
   -9.1820  -13.0810   22.2406 H   0  0  0  0  0  0  0  0  0  0  0  0
   -9.4207  -15.2825   23.1682 H   0  0  0  0  0  0  0  0  0  0  0  0
   -8.8386  -16.0451   21.6689 H   0  0  0  0  0  0  0  0  0  0  0  0
  -11.3984  -14.4175   22.0568 H   0  0  0  0  0  0  0  0  0  0  0  0
  -11.2689  -16.0574   21.3993 H   0  0  0  0  0  0  0  0  0  0  0  0
  -11.3645  -13.8403   19.7585 H   0  0  0  0  0  0  0  0  0  0  0  0
  -10.4866  -15.2951   19.3501 H   0  0  0  0  0  0  0  0  0  0  0  0
   -7.3511   -5.2978   18.0060 H   0  0  0  0  0  0  0  0  0  0  0  0
  -10.8645   -4.8518   19.9156 H   0  0  0  0  0  0  0  0  0  0  0  0
  -10.4963   -7.3373   20.1737 H   0  0  0  0  0  0  0  0  0  0  0  0
  1  2  2  0
  2  3  1  0
  3  4  1  0
  4  5  2  0
  5  6  1  0
  6  7  2  0
  7  8  1  0
  8  9  1  0
  9 10  1  0
 10 11  1  0
 11 12  1  0
 12 13  1  0
  2 14  1  0
 14 15  1  0
 15 16  2  0
 16 17  1  0
 17 18  1  0
  8  4  1  0
 13  9  1  0
 18 14  2  0
  3 19  1  0
  5 20  1  0
  6 21  1  0
  9 22  1  0
 10 23  1  0
 10 24  1  0
 11 25  1  0
 11 26  1  0
 12 27  1  0
 12 28  1  0
 13 29  1  0
 13 30  1  0
 15 31  1  0
 17 32  1  0
 18 33  1  0
M  END
>  <Energy>  (256) 
220.87651203798632

>  <compound_id>  (256) 
28370

>  <target_id>  (256) 
1

>  <reference_id>  (256) 
123

>  <inspiration_ids>  (256) 
[123, 99]

>  <energy_score>  (256) 
134.2169651777761

>  <distance_score>  (256) 
14.44966409041896

>  <path>  (256) 
/opt/xchem-fragalysis-2/maxwin/BulkDock/SCRATCH/511015/C28370-P123/C28370-P123.minimised.mol

>  <scratch_subdir>  (256) 
/opt/xchem-fragalysis-2/maxwin/BulkDock/SCRATCH/511015/C28370-P123

>  <fragmenstein_runtime>  (256) 
20.470269441604614

>  <fragmenstein_outcome>  (256) 
too moved

>  <fragmenstein_mode>  (256) 
expansion

>  <fragmenstein_error>  (256) 


$$$$
C28370-P99
     RDKit          3D

 33 35  0  0  0  0  0  0  0  0999 V2000
  -15.1474  -12.6546   14.1311 O   0  0  0  0  0  0  0  0  0  0  0  0
  -15.0058  -11.7619   14.9153 C   0  0  0  0  0  0  0  0  0  0  0  0
  -14.6815  -11.7868   16.3223 N   0  0  0  0  0  0  0  0  0  0  0  0
  -14.3424  -12.8487   17.1640 C   0  0  0  0  0  0  0  0  0  0  0  0
  -13.1405  -13.4880   16.8318 C   0  0  0  0  0  0  0  0  0  0  0  0
  -12.2535  -12.7791   17.7004 C   0  0  0  0  0  0  0  0  0  0  0  0
  -12.9314  -12.1688   18.6943 N   0  0  0  0  0  0  0  0  0  0  0  0
  -14.1415  -12.7781   18.5712 N   0  0  0  0  0  0  0  0  0  0  0  0
  -14.5134  -13.8115   19.5870 C   0  0  0  0  0  0  0  0  0  0  0  0
  -13.5703  -15.0312   19.7660 C   0  0  0  0  0  0  0  0  0  0  0  0
  -13.9906  -15.6466   21.1013 C   0  0  0  0  0  0  0  0  0  0  0  0
  -14.2165  -14.4362   21.9900 C   0  0  0  0  0  0  0  0  0  0  0  0
  -14.6460  -13.2964   21.0445 C   0  0  0  0  0  0  0  0  0  0  0  0
  -15.0712  -10.3891   14.3404 C   0  0  0  0  0  0  0  0  0  0  0  0
  -14.8775  -10.0833   12.9514 C   0  0  0  0  0  0  0  0  0  0  0  0
  -14.7664   -8.7761   12.6969 N   0  0  0  0  0  0  0  0  0  0  0  0
  -14.9162   -8.2199   13.9058 N   0  0  0  0  0  0  0  0  0  0  0  0
  -15.1135   -9.1319   14.9128 C   0  0  0  0  0  0  0  0  0  0  0  0
  -14.7247  -10.8453   16.6879 H   0  0  0  0  0  0  0  0  0  0  0  0
  -12.8551  -13.8895   15.8684 H   0  0  0  0  0  0  0  0  0  0  0  0
  -11.1831  -12.6507   17.6446 H   0  0  0  0  0  0  0  0  0  0  0  0
  -15.4974  -14.1718   19.2569 H   0  0  0  0  0  0  0  0  0  0  0  0
  -13.6675  -15.7442   18.9416 H   0  0  0  0  0  0  0  0  0  0  0  0
  -12.5215  -14.7169   19.8207 H   0  0  0  0  0  0  0  0  0  0  0  0
  -14.9262  -16.2040   20.9774 H   0  0  0  0  0  0  0  0  0  0  0  0
  -13.2350  -16.3271   21.5037 H   0  0  0  0  0  0  0  0  0  0  0  0
  -14.9648  -14.6297   22.7645 H   0  0  0  0  0  0  0  0  0  0  0  0
  -13.2824  -14.1580   22.4919 H   0  0  0  0  0  0  0  0  0  0  0  0
  -15.6827  -13.0005   21.2422 H   0  0  0  0  0  0  0  0  0  0  0  0
  -14.0249  -12.4118   21.2256 H   0  0  0  0  0  0  0  0  0  0  0  0
  -14.7680  -10.7905   12.1369 H   0  0  0  0  0  0  0  0  0  0  0  0
  -14.8724   -7.2087   13.9771 H   0  0  0  0  0  0  0  0  0  0  0  0
  -15.2335   -8.7952   15.9314 H   0  0  0  0  0  0  0  0  0  0  0  0
  1  2  2  0
  2  3  1  0
  3  4  1  0
  4  5  2  0
  5  6  1  0
  6  7  2  0
  7  8  1  0
  8  9  1  0
  9 10  1  0
 10 11  1  0
 11 12  1  0
 12 13  1  0
  2 14  1  0
 14 15  1  0
 15 16  2  0
 16 17  1  0
 17 18  1  0
  8  4  1  0
 13  9  1  0
 18 14  2  0
  3 19  1  0
  5 20  1  0
  6 21  1  0
  9 22  1  0
 10 23  1  0
 10 24  1  0
 11 25  1  0
 11 26  1  0
 12 27  1  0
 12 28  1  0
 13 29  1  0
 13 30  1  0
 15 31  1  0
 17 32  1  0
 18 33  1  0
M  END
>  <Energy>  (257) 
105.97608957347377

>  <compound_id>  (257) 
28370

>  <target_id>  (257) 
1

>  <reference_id>  (257) 
99

>  <inspiration_ids>  (257) 
[123, 99]

>  <energy_score>  (257) 
19.316542713270337

>  <distance_score>  (257) 
15.17780892215416

>  <path>  (257) 
/opt/xchem-fragalysis-2/maxwin/BulkDock/SCRATCH/511015/C28370-P99/C28370-P99.minimised.mol

>  <scratch_subdir>  (257) 
/opt/xchem-fragalysis-2/maxwin/BulkDock/SCRATCH/511015/C28370-P99

>  <fragmenstein_runtime>  (257) 
41.04084539413452

>  <fragmenstein_outcome>  (257) 
too moved

>  <fragmenstein_mode>  (257) 
expansion

>  <fragmenstein_error>  (257) 


$$$$
C28371-P123
     RDKit          3D

 49 51  0  0  0  0  0  0  0  0999 V2000
  -12.4921   -7.5130   19.9878 C   0  0  0  0  0  0  0  0  0  0  0  0
  -11.5817   -6.5220   20.7069 C   0  0  0  0  0  0  0  0  0  0  0  0
  -10.1219   -6.5126   20.2400 C   0  0  0  0  0  0  0  0  0  0  0  0
   -9.8745   -6.1931   18.8450 N   0  0  0  0  0  0  0  0  0  0  0  0
  -10.5795   -5.3386   17.9369 C   0  0  0  0  0  0  0  0  0  0  0  0
  -11.5986   -4.7302   18.0713 O   0  0  0  0  0  0  0  0  0  0  0  0
   -9.8733   -5.1885   16.6490 C   0  0  0  0  0  0  0  0  0  0  0  0
  -10.4491   -4.7564   15.4260 C   0  0  0  0  0  0  0  0  0  0  0  0
   -9.5669   -4.6658   14.4306 N   0  0  0  0  0  0  0  0  0  0  0  0
   -8.4064   -4.9866   15.0082 N   0  0  0  0  0  0  0  0  0  0  0  0
   -8.5365   -5.3470   16.3206 C   0  0  0  0  0  0  0  0  0  0  0  0
  -11.7225   -6.6410   22.2716 C   0  0  0  0  0  0  0  0  0  0  0  0
  -11.7965   -7.9298   22.9808 N   0  0  0  0  0  0  0  0  0  0  0  0
  -10.8821   -8.5505   23.9296 C   0  0  0  0  0  0  0  0  0  0  0  0
   -9.8016   -8.2036   24.3090 O   0  0  0  0  0  0  0  0  0  0  0  0
  -11.4620   -9.8117   24.6283 C   0  0  0  0  0  0  0  0  0  0  0  0
  -12.6972  -10.5098   24.4503 C   0  0  0  0  0  0  0  0  0  0  0  0
  -12.7538  -11.4826   25.4295 C   0  0  0  0  0  0  0  0  0  0  0  0
  -11.6040  -11.3588   26.1447 N   0  0  0  0  0  0  0  0  0  0  0  0
  -11.2108  -12.0179   27.3827 C   0  0  0  0  0  0  0  0  0  0  0  0
  -11.4266  -11.1208   28.6042 C   0  0  0  0  0  0  0  0  0  0  0  0
  -12.8816  -11.3561   28.9858 C   0  0  0  0  0  0  0  0  0  0  0  0
  -13.1619  -12.8139   28.6328 C   0  0  0  0  0  0  0  0  0  0  0  0
  -12.0002  -13.2797   27.7524 C   0  0  0  0  0  0  0  0  0  0  0  0
  -10.7761  -10.4289   25.6254 N   0  0  0  0  0  0  0  0  0  0  0  0
  -12.3845   -7.4480   18.9013 H   0  0  0  0  0  0  0  0  0  0  0  0
  -12.3024   -8.5440   20.2867 H   0  0  0  0  0  0  0  0  0  0  0  0
  -13.5402   -7.2998   20.2264 H   0  0  0  0  0  0  0  0  0  0  0  0
  -11.9703   -5.5210   20.4731 H   0  0  0  0  0  0  0  0  0  0  0  0
   -9.5542   -5.7743   20.8173 H   0  0  0  0  0  0  0  0  0  0  0  0
   -9.6611   -7.4788   20.4122 H   0  0  0  0  0  0  0  0  0  0  0  0
   -9.0004   -6.4744   18.4213 H   0  0  0  0  0  0  0  0  0  0  0  0
  -11.4851   -4.5013   15.2429 H   0  0  0  0  0  0  0  0  0  0  0  0
   -7.5635   -4.9465   14.4446 H   0  0  0  0  0  0  0  0  0  0  0  0
   -7.6664   -5.6263   16.8963 H   0  0  0  0  0  0  0  0  0  0  0  0
  -10.9197   -6.0652   22.7470 H   0  0  0  0  0  0  0  0  0  0  0  0
  -12.6608   -6.1414   22.5445 H   0  0  0  0  0  0  0  0  0  0  0  0
  -12.5880   -8.5415   22.8367 H   0  0  0  0  0  0  0  0  0  0  0  0
  -13.4807  -10.3041   23.7360 H   0  0  0  0  0  0  0  0  0  0  0  0
  -13.5271  -12.1951   25.6772 H   0  0  0  0  0  0  0  0  0  0  0  0
  -10.1489  -12.2623   27.2648 H   0  0  0  0  0  0  0  0  0  0  0  0
  -11.2211  -10.0618   28.4194 H   0  0  0  0  0  0  0  0  0  0  0  0
  -10.7772  -11.4521   29.4241 H   0  0  0  0  0  0  0  0  0  0  0  0
  -13.0671  -11.1461   30.0436 H   0  0  0  0  0  0  0  0  0  0  0  0
  -13.5362  -10.6997   28.4005 H   0  0  0  0  0  0  0  0  0  0  0  0
  -14.1197  -12.9045   28.1094 H   0  0  0  0  0  0  0  0  0  0  0  0
  -13.2257  -13.4323   29.5349 H   0  0  0  0  0  0  0  0  0  0  0  0
  -11.3575  -13.9423   28.3463 H   0  0  0  0  0  0  0  0  0  0  0  0
  -12.3459  -13.8612   26.8927 H   0  0  0  0  0  0  0  0  0  0  0  0
  1  2  1  0
  2  3  1  0
  3  4  1  0
  4  5  1  0
  5  6  2  0
  5  7  1  0
  7  8  1  0
  8  9  2  0
  9 10  1  0
 10 11  1  0
  2 12  1  0
 12 13  1  0
 13 14  1  0
 14 15  2  0
 14 16  1  0
 16 17  1  0
 17 18  2  0
 18 19  1  0
 19 20  1  0
 20 21  1  0
 21 22  1  0
 22 23  1  0
 23 24  1  0
 19 25  1  0
 11  7  2  0
 25 16  2  0
 24 20  1  0
  1 26  1  0
  1 27  1  0
  1 28  1  0
  2 29  1  0
  3 30  1  0
  3 31  1  0
  4 32  1  0
  8 33  1  0
 10 34  1  0
 11 35  1  0
 12 36  1  0
 12 37  1  0
 13 38  1  0
 17 39  1  0
 18 40  1  0
 20 41  1  0
 21 42  1  0
 21 43  1  0
 22 44  1  0
 22 45  1  0
 23 46  1  0
 23 47  1  0
 24 48  1  0
 24 49  1  0
M  END
>  <Energy>  (258) 
52.138428791391149

>  <compound_id>  (258) 
28371

>  <target_id>  (258) 
1

>  <reference_id>  (258) 
123

>  <inspiration_ids>  (258) 
[123, 99]

>  <energy_score>  (258) 
-30.817543773107218

>  <distance_score>  (258) 
13.910541176130888

>  <path>  (258) 
/opt/xchem-fragalysis-2/maxwin/BulkDock/SCRATCH/511015/C28371-P123/C28371-P123.minimised.mol

>  <scratch_subdir>  (258) 
/opt/xchem-fragalysis-2/maxwin/BulkDock/SCRATCH/511015/C28371-P123

>  <fragmenstein_runtime>  (258) 
70.82115769386292

>  <fragmenstein_outcome>  (258) 
too moved

>  <fragmenstein_mode>  (258) 
expansion

>  <fragmenstein_error>  (258) 


$$$$
C28371-P99
     RDKit          3D

 49 51  0  0  0  0  0  0  0  0999 V2000
   -7.8818  -11.0693   18.3882 C   0  0  0  0  0  0  0  0  0  0  0  0
   -7.1709  -12.3624   19.1955 C   0  0  0  0  0  0  0  0  0  0  0  0
   -8.5188  -13.3444   18.6576 C   0  0  0  0  0  0  0  0  0  0  0  0
   -8.7671  -13.1677   17.1974 N   0  0  0  0  0  0  0  0  0  0  0  0
   -9.8946  -12.6098   16.4913 C   0  0  0  0  0  0  0  0  0  0  0  0
  -10.9524  -12.2206   16.8936 O   0  0  0  0  0  0  0  0  0  0  0  0
   -9.6506  -12.3990   15.0470 C   0  0  0  0  0  0  0  0  0  0  0  0
   -8.5698  -12.6902   14.1814 C   0  0  0  0  0  0  0  0  0  0  0  0
   -8.7447  -12.2280   12.9402 N   0  0  0  0  0  0  0  0  0  0  0  0
   -9.9362  -11.6127   12.9951 N   0  0  0  0  0  0  0  0  0  0  0  0
  -10.5109  -11.6817   14.2223 C   0  0  0  0  0  0  0  0  0  0  0  0
   -6.5663  -12.4030   21.2005 C   0  0  0  0  0  0  0  0  0  0  0  0
   -7.5588  -12.9650   22.7907 N   0  0  0  0  0  0  0  0  0  0  0  0
   -7.3438  -14.6211   24.1917 C   0  0  0  0  0  0  0  0  0  0  0  0
   -6.3854  -15.2116   23.9749 O   0  0  0  0  0  0  0  0  0  0  0  0
   -8.5145  -15.4228   25.7699 C   0  0  0  0  0  0  0  0  0  0  0  0
   -9.3310  -16.8206   26.0831 C   0  0  0  0  0  0  0  0  0  0  0  0
   -9.4221  -17.3983   27.4583 C   0  0  0  0  0  0  0  0  0  0  0  0
  -10.7395  -16.7776   27.9149 N   0  0  0  0  0  0  0  0  0  0  0  0
  -12.0897  -17.5886   29.2167 C   0  0  0  0  0  0  0  0  0  0  0  0
  -13.3196  -19.3550   29.7356 C   0  0  0  0  0  0  0  0  0  0  0  0
  -14.6502  -19.4573   31.6733 C   0  0  0  0  0  0  0  0  0  0  0  0
  -13.2909  -17.6565   32.3950 C   0  0  0  0  0  0  0  0  0  0  0  0
  -12.2536  -16.5204   30.9306 C   0  0  0  0  0  0  0  0  0  0  0  0
   -9.7578  -15.3305   27.1273 N   0  0  0  0  0  0  0  0  0  0  0  0
   -8.9533  -11.1778   18.2092 H   0  0  0  0  0  0  0  0  0  0  0  0
   -7.4106  -10.9575   17.4024 H   0  0  0  0  0  0  0  0  0  0  0  0
   -7.9829  -10.1195   18.8934 H   0  0  0  0  0  0  0  0  0  0  0  0
   -6.2764  -12.6141   18.6028 H   0  0  0  0  0  0  0  0  0  0  0  0
   -8.5498  -14.4006   18.8434 H   0  0  0  0  0  0  0  0  0  0  0  0
   -9.4212  -12.9976   19.1508 H   0  0  0  0  0  0  0  0  0  0  0  0
   -8.0096  -13.3095   16.5479 H   0  0  0  0  0  0  0  0  0  0  0  0
   -7.6514  -13.2200   14.3967 H   0  0  0  0  0  0  0  0  0  0  0  0
  -10.2979  -11.1668   12.1582 H   0  0  0  0  0  0  0  0  0  0  0  0
  -11.4670  -11.2205   14.4281 H   0  0  0  0  0  0  0  0  0  0  0  0
   -6.9990  -13.2850   20.3050 H   0  0  0  0  0  0  0  0  0  0  0  0
   -5.5627  -11.9821   21.0544 H   0  0  0  0  0  0  0  0  0  0  0  0
   -8.4217  -12.5268   22.9301 H   0  0  0  0  0  0  0  0  0  0  0  0
  -10.0671  -17.1461   25.3448 H   0  0  0  0  0  0  0  0  0  0  0  0
   -8.6936  -17.3086   28.2563 H   0  0  0  0  0  0  0  0  0  0  0  0
  -12.8295  -17.0571   28.5822 H   0  0  0  0  0  0  0  0  0  0  0  0
  -12.7494  -20.3093   29.5254 H   0  0  0  0  0  0  0  0  0  0  0  0
  -14.1472  -19.6062   29.0932 H   0  0  0  0  0  0  0  0  0  0  0  0
  -14.5933  -20.3241   32.4157 H   0  0  0  0  0  0  0  0  0  0  0  0
  -15.7432  -19.4544   31.3055 H   0  0  0  0  0  0  0  0  0  0  0  0
  -13.7426  -16.6920   32.8689 H   0  0  0  0  0  0  0  0  0  0  0  0
  -12.8216  -17.8564   33.4288 H   0  0  0  0  0  0  0  0  0  0  0  0
  -12.9528  -15.6855   30.6842 H   0  0  0  0  0  0  0  0  0  0  0  0
  -11.3231  -15.9674   31.1540 H   0  0  0  0  0  0  0  0  0  0  0  0
  1  2  1  0
  2  3  1  0
  3  4  1  0
  4  5  1  0
  5  6  2  0
  5  7  1  0
  7  8  1  0
  8  9  2  0
  9 10  1  0
 10 11  1  0
  2 12  1  0
 12 13  1  0
 13 14  1  0
 14 15  2  0
 14 16  1  0
 16 17  1  0
 17 18  2  0
 18 19  1  0
 19 20  1  0
 20 21  1  0
 21 22  1  0
 22 23  1  0
 23 24  1  0
 19 25  1  0
 11  7  2  0
 25 16  2  0
 24 20  1  0
  1 26  1  0
  1 27  1  0
  1 28  1  0
  2 29  1  0
  3 30  1  0
  3 31  1  0
  4 32  1  0
  8 33  1  0
 10 34  1  0
 11 35  1  0
 12 36  1  0
 12 37  1  0
 13 38  1  0
 17 39  1  0
 18 40  1  0
 20 41  1  0
 21 42  1  0
 21 43  1  0
 22 44  1  0
 22 45  1  0
 23 46  1  0
 23 47  1  0
 24 48  1  0
 24 49  1  0
M  END
>  <Energy>  (259) 
2110.7136805295327

>  <compound_id>  (259) 
28371

>  <target_id>  (259) 
1

>  <reference_id>  (259) 
99

>  <inspiration_ids>  (259) 
[123, 99]

>  <energy_score>  (259) 
2027.7577079650418

>  <distance_score>  (259) 
13.348658666281414

>  <path>  (259) 
/opt/xchem-fragalysis-2/maxwin/BulkDock/SCRATCH/511015/C28371-P99/C28371-P99.minimised.mol

>  <scratch_subdir>  (259) 
/opt/xchem-fragalysis-2/maxwin/BulkDock/SCRATCH/511015/C28371-P99

>  <fragmenstein_runtime>  (259) 
51.87957763671875

>  <fragmenstein_outcome>  (259) 
too moved

>  <fragmenstein_mode>  (259) 
expansion

>  <fragmenstein_error>  (259) 


$$$$
C28374-P123
     RDKit          3D

 47 49  0  0  0  0  0  0  0  0999 V2000
   -6.2146   -7.4418   10.2799 C   0  0  0  0  0  0  0  0  0  0  0  0
   -4.8798   -7.3232   10.5621 N   0  0  0  0  0  0  0  0  0  0  0  0
   -3.8351   -5.9858    9.6458 C   0  0  0  0  0  0  0  0  0  0  0  0
   -3.4249   -6.4143    8.7209 O   0  0  0  0  0  0  0  0  0  0  0  0
   -3.7222   -4.6559    9.9242 N   0  0  0  0  0  0  0  0  0  0  0  0
   -3.0775   -3.1605    8.8814 C   0  0  0  0  0  0  0  0  0  0  0  0
   -3.7755   -3.1092    7.4219 C   0  0  0  0  0  0  0  0  0  0  0  0
   -4.9424   -2.0929    7.2280 C   0  0  0  0  0  0  0  0  0  0  0  0
   -6.2428   -2.6201    6.7096 C   0  0  0  0  0  0  0  0  0  0  0  0
   -6.5130   -3.2683    5.4828 C   0  0  0  0  0  0  0  0  0  0  0  0
   -7.8106   -3.5146    5.2966 N   0  0  0  0  0  0  0  0  0  0  0  0
   -8.3836   -3.0805    6.4260 N   0  0  0  0  0  0  0  0  0  0  0  0
   -7.4977   -2.4817    7.2733 C   0  0  0  0  0  0  0  0  0  0  0  0
   -4.4781   -8.6271   11.8518 C   0  0  0  0  0  0  0  0  0  0  0  0
   -5.3379   -9.8804   11.2057 C   0  0  0  0  0  0  0  0  0  0  0  0
   -4.5773  -11.2029   11.1613 C   0  0  0  0  0  0  0  0  0  0  0  0
   -3.1935  -10.8920   11.6408 C   0  0  0  0  0  0  0  0  0  0  0  0
   -3.4435   -9.8019   12.6709 C   0  0  0  0  0  0  0  0  0  0  0  0
   -3.9886  -10.4733   13.9548 N   0  0  0  0  0  0  0  0  0  0  0  0
   -3.2746  -11.3124   14.8063 C   0  0  0  0  0  0  0  0  0  0  0  0
   -4.1505  -11.8089   15.7488 C   0  0  0  0  0  0  0  0  0  0  0  0
   -5.3736  -11.2109   15.4170 C   0  0  0  0  0  0  0  0  0  0  0  0
   -5.2824  -10.3854   14.3603 N   0  0  0  0  0  0  0  0  0  0  0  0
   -6.4912   -6.5165    9.7779 H   0  0  0  0  0  0  0  0  0  0  0  0
   -6.4097   -8.1936    9.5015 H   0  0  0  0  0  0  0  0  0  0  0  0
   -6.6556   -7.8904   11.1692 H   0  0  0  0  0  0  0  0  0  0  0  0
   -4.0732   -4.5199   10.8288 H   0  0  0  0  0  0  0  0  0  0  0  0
   -2.2439   -2.4817    8.7830 H   0  0  0  0  0  0  0  0  0  0  0  0
   -3.5936   -2.2433    9.2625 H   0  0  0  0  0  0  0  0  0  0  0  0
   -2.9903   -2.6668    6.8200 H   0  0  0  0  0  0  0  0  0  0  0  0
   -3.9402   -4.0952    7.0114 H   0  0  0  0  0  0  0  0  0  0  0  0
   -4.6068   -1.3364    6.5038 H   0  0  0  0  0  0  0  0  0  0  0  0
   -5.1345   -1.5209    8.1430 H   0  0  0  0  0  0  0  0  0  0  0  0
   -5.8233   -3.5553    4.7019 H   0  0  0  0  0  0  0  0  0  0  0  0
   -9.3870   -3.1926    6.5363 H   0  0  0  0  0  0  0  0  0  0  0  0
   -7.8379   -2.0247    8.1909 H   0  0  0  0  0  0  0  0  0  0  0  0
   -5.1012   -8.2183   12.6679 H   0  0  0  0  0  0  0  0  0  0  0  0
   -5.5984   -9.7255   10.1641 H   0  0  0  0  0  0  0  0  0  0  0  0
   -6.2695  -10.0036   11.7692 H   0  0  0  0  0  0  0  0  0  0  0  0
   -4.5617  -11.6332   10.1539 H   0  0  0  0  0  0  0  0  0  0  0  0
   -5.0685  -11.9383   11.8092 H   0  0  0  0  0  0  0  0  0  0  0  0
   -2.6970  -11.7815   12.0413 H   0  0  0  0  0  0  0  0  0  0  0  0
   -2.5765  -10.5121   10.8204 H   0  0  0  0  0  0  0  0  0  0  0  0
   -2.4769   -9.4202   13.0135 H   0  0  0  0  0  0  0  0  0  0  0  0
   -2.2214  -11.4936   14.6427 H   0  0  0  0  0  0  0  0  0  0  0  0
   -3.9348  -12.5034   16.5483 H   0  0  0  0  0  0  0  0  0  0  0  0
   -6.3308  -11.3406   15.8997 H   0  0  0  0  0  0  0  0  0  0  0  0
  1  2  1  0
  2  3  1  0
  3  4  2  0
  3  5  1  0
  5  6  1  0
  6  7  1  0
  7  8  1  0
  8  9  1  0
  9 10  1  0
 10 11  2  0
 11 12  1  0
 12 13  1  0
  2 14  1  0
 14 15  1  0
 15 16  1  0
 16 17  1  0
 17 18  1  0
 18 19  1  0
 19 20  1  0
 20 21  2  0
 21 22  1  0
 22 23  2  0
 13  9  2  0
 18 14  1  0
 23 19  1  0
  1 24  1  0
  1 25  1  0
  1 26  1  0
  5 27  1  0
  6 28  1  0
  6 29  1  0
  7 30  1  0
  7 31  1  0
  8 32  1  0
  8 33  1  0
 10 34  1  0
 12 35  1  0
 13 36  1  0
 14 37  1  0
 15 38  1  0
 15 39  1  0
 16 40  1  0
 16 41  1  0
 17 42  1  0
 17 43  1  0
 18 44  1  0
 20 45  1  0
 21 46  1  0
 22 47  1  0
M  END
>  <Energy>  (260) 
350.10462392127937

>  <compound_id>  (260) 
28374

>  <target_id>  (260) 
1

>  <reference_id>  (260) 
123

>  <inspiration_ids>  (260) 
[123, 99]

>  <energy_score>  (260) 
351.45682343019837

>  <distance_score>  (260) 
13.558596422352023

>  <path>  (260) 
/opt/xchem-fragalysis-2/maxwin/BulkDock/SCRATCH/511015/C28374-P123/C28374-P123.minimised.mol

>  <scratch_subdir>  (260) 
/opt/xchem-fragalysis-2/maxwin/BulkDock/SCRATCH/511015/C28374-P123

>  <fragmenstein_runtime>  (260) 
44.85686016082764

>  <fragmenstein_outcome>  (260) 
too moved

>  <fragmenstein_mode>  (260) 
expansion

>  <fragmenstein_error>  (260) 


$$$$
C28374-P99
     RDKit          3D

 47 49  0  0  0  0  0  0  0  0999 V2000
   -5.4623  -16.2741   15.5669 C   0  0  0  0  0  0  0  0  0  0  0  0
   -5.2146  -16.1337   14.1790 N   0  0  0  0  0  0  0  0  0  0  0  0
   -4.5374  -14.8704   13.9926 C   0  0  0  0  0  0  0  0  0  0  0  0
   -3.3481  -14.7866   14.0078 O   0  0  0  0  0  0  0  0  0  0  0  0
   -5.5494  -13.8740   13.7098 N   0  0  0  0  0  0  0  0  0  0  0  0
   -5.4290  -12.4817   13.2613 C   0  0  0  0  0  0  0  0  0  0  0  0
   -5.4817  -12.3365   11.7298 C   0  0  0  0  0  0  0  0  0  0  0  0
   -5.1560  -10.9401   11.1553 C   0  0  0  0  0  0  0  0  0  0  0  0
   -5.0299  -11.0100    9.6626 C   0  0  0  0  0  0  0  0  0  0  0  0
   -5.7188  -10.2724    8.6742 C   0  0  0  0  0  0  0  0  0  0  0  0
   -5.4113  -10.6445    7.4316 N   0  0  0  0  0  0  0  0  0  0  0  0
   -4.5063  -11.6081    7.6052 N   0  0  0  0  0  0  0  0  0  0  0  0
   -4.2190  -11.8409    8.9170 C   0  0  0  0  0  0  0  0  0  0  0  0
   -5.8910  -17.1400   15.6580 C   0  0  0  0  0  0  0  0  0  0  0  0
   -6.8504  -18.1287   14.6702 C   0  0  0  0  0  0  0  0  0  0  0  0
   -5.9280  -19.1837   14.1044 C   0  0  0  0  0  0  0  0  0  0  0  0
   -5.2166  -19.7037   15.3290 C   0  0  0  0  0  0  0  0  0  0  0  0
   -4.8924  -18.4803   16.2033 C   0  0  0  0  0  0  0  0  0  0  0  0
   -4.9628  -18.8469   17.6256 N   0  0  0  0  0  0  0  0  0  0  0  0
   -4.0699  -19.6669   18.2645 C   0  0  0  0  0  0  0  0  0  0  0  0
   -4.4855  -19.7577   19.5656 C   0  0  0  0  0  0  0  0  0  0  0  0
   -5.6353  -18.9533   19.6313 C   0  0  0  0  0  0  0  0  0  0  0  0
   -5.9501  -18.4356   18.4363 N   0  0  0  0  0  0  0  0  0  0  0  0
   -4.2825  -16.2399   15.7735 H   0  0  0  0  0  0  0  0  0  0  0  0
   -6.2521  -15.3591   15.5121 H   0  0  0  0  0  0  0  0  0  0  0  0
   -5.1821  -15.4327   16.3630 H   0  0  0  0  0  0  0  0  0  0  0  0
   -6.4579  -14.3184   13.7069 H   0  0  0  0  0  0  0  0  0  0  0  0
   -6.2405  -11.9153   13.7279 H   0  0  0  0  0  0  0  0  0  0  0  0
   -4.4717  -12.1043   13.6351 H   0  0  0  0  0  0  0  0  0  0  0  0
   -6.4727  -12.6540   11.3795 H   0  0  0  0  0  0  0  0  0  0  0  0
   -4.7788  -13.0716   11.3151 H   0  0  0  0  0  0  0  0  0  0  0  0
   -5.9349  -10.2267   11.4456 H   0  0  0  0  0  0  0  0  0  0  0  0
   -4.2089  -10.5793   11.5735 H   0  0  0  0  0  0  0  0  0  0  0  0
   -6.4168   -9.4572    8.8156 H   0  0  0  0  0  0  0  0  0  0  0  0
   -4.1221  -12.0657    6.7848 H   0  0  0  0  0  0  0  0  0  0  0  0
   -3.5000  -12.5965    9.2021 H   0  0  0  0  0  0  0  0  0  0  0  0
   -6.8794  -16.9292   16.3576 H   0  0  0  0  0  0  0  0  0  0  0  0
   -7.6234  -18.5987   15.2932 H   0  0  0  0  0  0  0  0  0  0  0  0
   -7.3443  -17.5388   13.8911 H   0  0  0  0  0  0  0  0  0  0  0  0
   -5.2156  -18.7502   13.3948 H   0  0  0  0  0  0  0  0  0  0  0  0
   -6.4810  -19.9749   13.5897 H   0  0  0  0  0  0  0  0  0  0  0  0
   -5.8723  -20.4057   15.8608 H   0  0  0  0  0  0  0  0  0  0  0  0
   -4.3092  -20.2552   15.0599 H   0  0  0  0  0  0  0  0  0  0  0  0
   -3.8419  -18.2014   16.0365 H   0  0  0  0  0  0  0  0  0  0  0  0
   -3.2360  -20.1151   17.7430 H   0  0  0  0  0  0  0  0  0  0  0  0
   -4.0169  -20.3564   20.3294 H   0  0  0  0  0  0  0  0  0  0  0  0
   -6.2751  -18.7537   20.4828 H   0  0  0  0  0  0  0  0  0  0  0  0
  1  2  1  0
  2  3  1  0
  3  4  2  0
  3  5  1  0
  5  6  1  0
  6  7  1  0
  7  8  1  0
  8  9  1  0
  9 10  1  0
 10 11  2  0
 11 12  1  0
 12 13  1  0
  2 14  1  0
 14 15  1  0
 15 16  1  0
 16 17  1  0
 17 18  1  0
 18 19  1  0
 19 20  1  0
 20 21  2  0
 21 22  1  0
 22 23  2  0
 13  9  2  0
 18 14  1  0
 23 19  1  0
  1 24  1  0
  1 25  1  0
  1 26  1  0
  5 27  1  0
  6 28  1  0
  6 29  1  0
  7 30  1  0
  7 31  1  0
  8 32  1  0
  8 33  1  0
 10 34  1  0
 12 35  1  0
 13 36  1  0
 14 37  1  0
 15 38  1  0
 15 39  1  0
 16 40  1  0
 16 41  1  0
 17 42  1  0
 17 43  1  0
 18 44  1  0
 20 45  1  0
 21 46  1  0
 22 47  1  0
M  END
>  <Energy>  (261) 
524.20176354840771

>  <compound_id>  (261) 
28374

>  <target_id>  (261) 
1

>  <reference_id>  (261) 
99

>  <inspiration_ids>  (261) 
[123, 99]

>  <energy_score>  (261) 
525.5539630573273

>  <distance_score>  (261) 
13.209289213050276

>  <path>  (261) 
/opt/xchem-fragalysis-2/maxwin/BulkDock/SCRATCH/511015/C28374-P99/C28374-P99.minimised.mol

>  <scratch_subdir>  (261) 
/opt/xchem-fragalysis-2/maxwin/BulkDock/SCRATCH/511015/C28374-P99

>  <fragmenstein_runtime>  (261) 
43.99147081375122

>  <fragmenstein_outcome>  (261) 
too moved

>  <fragmenstein_mode>  (261) 
expansion

>  <fragmenstein_error>  (261) 


$$$$
C28377-P123
     RDKit          3D

 46 48  0  0  0  0  0  0  0  0999 V2000
   -8.9555  -19.9215   13.2438 C   0  0  0  0  0  0  0  0  0  0  0  0
   -9.7707  -18.8110   13.8268 N   0  0  0  0  0  0  0  0  0  0  0  0
  -10.1909  -19.9494   14.8320 C   0  0  0  0  0  0  0  0  0  0  0  0
   -9.3195  -20.1222   16.1232 C   0  0  0  0  0  0  0  0  0  0  0  0
   -9.8900  -20.7895   17.3063 N   0  0  0  0  0  0  0  0  0  0  0  0
   -9.3613  -21.8405   18.1480 C   0  0  0  0  0  0  0  0  0  0  0  0
   -8.3621  -22.4881   18.0476 O   0  0  0  0  0  0  0  0  0  0  0  0
  -10.1598  -22.0667   19.3848 C   0  0  0  0  0  0  0  0  0  0  0  0
  -11.5201  -21.9835   19.6598 C   0  0  0  0  0  0  0  0  0  0  0  0
  -11.6900  -22.4066   20.9970 C   0  0  0  0  0  0  0  0  0  0  0  0
  -10.5409  -22.7679   21.5562 N   0  0  0  0  0  0  0  0  0  0  0  0
   -9.6126  -22.4530   20.6165 N   0  0  0  0  0  0  0  0  0  0  0  0
   -8.1979  -22.5241   20.9678 C   0  0  0  0  0  0  0  0  0  0  0  0
   -7.8751  -22.0975   22.4158 C   0  0  0  0  0  0  0  0  0  0  0  0
   -7.5174  -23.3857   23.1425 C   0  0  0  0  0  0  0  0  0  0  0  0
   -6.8100  -24.1976   22.0730 C   0  0  0  0  0  0  0  0  0  0  0  0
   -7.6479  -23.9540   20.8247 C   0  0  0  0  0  0  0  0  0  0  0  0
  -10.5226  -18.1488   12.7862 C   0  0  0  0  0  0  0  0  0  0  0  0
  -11.6288  -18.3632   12.3673 O   0  0  0  0  0  0  0  0  0  0  0  0
   -9.8362  -16.9421   12.2173 C   0  0  0  0  0  0  0  0  0  0  0  0
  -10.3874  -16.0174   11.2700 C   0  0  0  0  0  0  0  0  0  0  0  0
   -9.5840  -14.9871   10.9802 N   0  0  0  0  0  0  0  0  0  0  0  0
   -8.5032  -15.2254   11.7368 N   0  0  0  0  0  0  0  0  0  0  0  0
   -8.5964  -16.3785   12.4733 C   0  0  0  0  0  0  0  0  0  0  0  0
   -8.3762  -19.4574   12.4311 H   0  0  0  0  0  0  0  0  0  0  0  0
   -9.5519  -20.6784   12.7119 H   0  0  0  0  0  0  0  0  0  0  0  0
   -8.1747  -20.3341   13.8905 H   0  0  0  0  0  0  0  0  0  0  0  0
  -11.1430  -19.5380   15.2042 H   0  0  0  0  0  0  0  0  0  0  0  0
  -10.5428  -20.8989   14.3951 H   0  0  0  0  0  0  0  0  0  0  0  0
   -9.0244  -19.1290   16.4701 H   0  0  0  0  0  0  0  0  0  0  0  0
   -8.3951  -20.6605   15.8948 H   0  0  0  0  0  0  0  0  0  0  0  0
  -10.7198  -20.4051   17.7404 H   0  0  0  0  0  0  0  0  0  0  0  0
  -12.3014  -21.6944   18.9731 H   0  0  0  0  0  0  0  0  0  0  0  0
  -12.6031  -22.4917   21.5720 H   0  0  0  0  0  0  0  0  0  0  0  0
   -7.6688  -21.8336   20.3016 H   0  0  0  0  0  0  0  0  0  0  0  0
   -8.6779  -21.5530   22.9210 H   0  0  0  0  0  0  0  0  0  0  0  0
   -6.9969  -21.4400   22.4060 H   0  0  0  0  0  0  0  0  0  0  0  0
   -8.4255  -23.9013   23.4757 H   0  0  0  0  0  0  0  0  0  0  0  0
   -6.8841  -23.2061   24.0159 H   0  0  0  0  0  0  0  0  0  0  0  0
   -6.7458  -25.2591   22.3284 H   0  0  0  0  0  0  0  0  0  0  0  0
   -5.7916  -23.8201   21.9222 H   0  0  0  0  0  0  0  0  0  0  0  0
   -8.4567  -24.6934   20.7732 H   0  0  0  0  0  0  0  0  0  0  0  0
   -7.0457  -24.0688   19.9176 H   0  0  0  0  0  0  0  0  0  0  0  0
  -11.3617  -16.0719   10.7990 H   0  0  0  0  0  0  0  0  0  0  0  0
   -7.7352  -14.5623   11.7037 H   0  0  0  0  0  0  0  0  0  0  0  0
   -7.7943  -16.6797   13.1316 H   0  0  0  0  0  0  0  0  0  0  0  0
  1  2  1  0
  2  3  1  0
  3  4  1  0
  4  5  1  0
  5  6  1  0
  6  7  2  0
  6  8  1  0
  8  9  2  0
  9 10  1  0
 10 11  2  0
 11 12  1  0
 12 13  1  0
 13 14  1  0
 14 15  1  0
 15 16  1  0
 16 17  1  0
  2 18  1  0
 18 19  2  0
 18 20  1  0
 20 21  1  0
 21 22  2  0
 22 23  1  0
 23 24  1  0
 12  8  1  0
 17 13  1  0
 24 20  2  0
  1 25  1  0
  1 26  1  0
  1 27  1  0
  3 28  1  0
  3 29  1  0
  4 30  1  0
  4 31  1  0
  5 32  1  0
  9 33  1  0
 10 34  1  0
 13 35  1  0
 14 36  1  0
 14 37  1  0
 15 38  1  0
 15 39  1  0
 16 40  1  0
 16 41  1  0
 17 42  1  0
 17 43  1  0
 21 44  1  0
 23 45  1  0
 24 46  1  0
M  END
>  <Energy>  (262) 
69.360320255088666

>  <compound_id>  (262) 
28377

>  <target_id>  (262) 
1

>  <reference_id>  (262) 
123

>  <inspiration_ids>  (262) 
[123, 99]

>  <energy_score>  (262) 
36.601881985461205

>  <distance_score>  (262) 
16.156464097067637

>  <path>  (262) 
/opt/xchem-fragalysis-2/maxwin/BulkDock/SCRATCH/511015/C28377-P123/C28377-P123.minimised.mol

>  <scratch_subdir>  (262) 
/opt/xchem-fragalysis-2/maxwin/BulkDock/SCRATCH/511015/C28377-P123

>  <fragmenstein_runtime>  (262) 
48.23736310005188

>  <fragmenstein_outcome>  (262) 
too moved

>  <fragmenstein_mode>  (262) 
expansion

>  <fragmenstein_error>  (262) 


$$$$
C28377-P99
     RDKit          3D

 46 48  0  0  0  0  0  0  0  0999 V2000
  -14.4424   -8.3844   22.8384 C   0  0  0  0  0  0  0  0  0  0  0  0
  -13.1225   -9.0189   22.4997 N   0  0  0  0  0  0  0  0  0  0  0  0
  -13.3969   -9.7769   23.8604 C   0  0  0  0  0  0  0  0  0  0  0  0
  -12.1973  -10.6771   24.3267 C   0  0  0  0  0  0  0  0  0  0  0  0
  -12.5330  -11.7999   25.2334 N   0  0  0  0  0  0  0  0  0  0  0  0
  -12.0531  -12.1247   26.5575 C   0  0  0  0  0  0  0  0  0  0  0  0
  -11.3232  -11.5254   27.2886 O   0  0  0  0  0  0  0  0  0  0  0  0
  -12.4886  -13.4857   27.0071 C   0  0  0  0  0  0  0  0  0  0  0  0
  -13.6189  -14.2388   26.7090 C   0  0  0  0  0  0  0  0  0  0  0  0
  -13.5149  -15.4401   27.4385 C   0  0  0  0  0  0  0  0  0  0  0  0
  -12.3999  -15.4968   28.1600 N   0  0  0  0  0  0  0  0  0  0  0  0
  -11.7729  -14.3185   27.8794 N   0  0  0  0  0  0  0  0  0  0  0  0
  -10.4576  -14.0791   28.4510 C   0  0  0  0  0  0  0  0  0  0  0  0
  -10.5101  -13.5453   29.8898 C   0  0  0  0  0  0  0  0  0  0  0  0
   -9.3696  -14.2338   30.6424 C   0  0  0  0  0  0  0  0  0  0  0  0
   -8.5221  -14.9119   29.5761 C   0  0  0  0  0  0  0  0  0  0  0  0
   -9.5421  -15.3121   28.5238 C   0  0  0  0  0  0  0  0  0  0  0  0
  -12.1557   -8.0040   22.1668 C   0  0  0  0  0  0  0  0  0  0  0  0
  -11.3738   -7.4146   22.8633 O   0  0  0  0  0  0  0  0  0  0  0  0
  -12.1450   -7.6472   20.7062 C   0  0  0  0  0  0  0  0  0  0  0  0
  -11.2243   -6.7731   20.0376 C   0  0  0  0  0  0  0  0  0  0  0  0
  -11.4142   -6.6857   18.7151 N   0  0  0  0  0  0  0  0  0  0  0  0
  -12.4661   -7.4892   18.5058 N   0  0  0  0  0  0  0  0  0  0  0  0
  -12.9578   -8.0491   19.6572 C   0  0  0  0  0  0  0  0  0  0  0  0
  -15.2975   -9.0738   22.8777 H   0  0  0  0  0  0  0  0  0  0  0  0
  -14.6877   -7.7358   21.9848 H   0  0  0  0  0  0  0  0  0  0  0  0
  -14.3927   -7.6729   23.6763 H   0  0  0  0  0  0  0  0  0  0  0  0
  -14.2377  -10.4746   23.7270 H   0  0  0  0  0  0  0  0  0  0  0  0
  -13.5475   -9.0971   24.7136 H   0  0  0  0  0  0  0  0  0  0  0  0
  -11.4359  -10.0586   24.8137 H   0  0  0  0  0  0  0  0  0  0  0  0
  -11.7309  -11.1447   23.4583 H   0  0  0  0  0  0  0  0  0  0  0  0
  -13.0708  -12.5774   24.8781 H   0  0  0  0  0  0  0  0  0  0  0  0
  -14.4385  -13.9493   26.0670 H   0  0  0  0  0  0  0  0  0  0  0  0
  -14.2134  -16.2667   27.4700 H   0  0  0  0  0  0  0  0  0  0  0  0
   -9.9439  -13.3500   27.8157 H   0  0  0  0  0  0  0  0  0  0  0  0
  -11.4667  -13.7487   30.3847 H   0  0  0  0  0  0  0  0  0  0  0  0
  -10.3729  -12.4579   29.8929 H   0  0  0  0  0  0  0  0  0  0  0  0
   -8.7871  -13.5289   31.2433 H   0  0  0  0  0  0  0  0  0  0  0  0
   -9.7828  -14.9868   31.3239 H   0  0  0  0  0  0  0  0  0  0  0  0
   -7.9686  -15.7699   29.9682 H   0  0  0  0  0  0  0  0  0  0  0  0
   -7.8010  -14.2011   29.1555 H   0  0  0  0  0  0  0  0  0  0  0  0
  -10.0745  -16.2115   28.8544 H   0  0  0  0  0  0  0  0  0  0  0  0
   -9.0747  -15.5368   27.5598 H   0  0  0  0  0  0  0  0  0  0  0  0
  -10.4133   -6.2136   20.4884 H   0  0  0  0  0  0  0  0  0  0  0  0
  -12.8027   -7.6072   17.5555 H   0  0  0  0  0  0  0  0  0  0  0  0
  -13.8139   -8.7064   19.6247 H   0  0  0  0  0  0  0  0  0  0  0  0
  1  2  1  0
  2  3  1  0
  3  4  1  0
  4  5  1  0
  5  6  1  0
  6  7  2  0
  6  8  1  0
  8  9  2  0
  9 10  1  0
 10 11  2  0
 11 12  1  0
 12 13  1  0
 13 14  1  0
 14 15  1  0
 15 16  1  0
 16 17  1  0
  2 18  1  0
 18 19  2  0
 18 20  1  0
 20 21  1  0
 21 22  2  0
 22 23  1  0
 23 24  1  0
 12  8  1  0
 17 13  1  0
 24 20  2  0
  1 25  1  0
  1 26  1  0
  1 27  1  0
  3 28  1  0
  3 29  1  0
  4 30  1  0
  4 31  1  0
  5 32  1  0
  9 33  1  0
 10 34  1  0
 13 35  1  0
 14 36  1  0
 14 37  1  0
 15 38  1  0
 15 39  1  0
 16 40  1  0
 16 41  1  0
 17 42  1  0
 17 43  1  0
 21 44  1  0
 23 45  1  0
 24 46  1  0
M  END
>  <Energy>  (263) 
66.492515738356005

>  <compound_id>  (263) 
28377

>  <target_id>  (263) 
1

>  <reference_id>  (263) 
99

>  <inspiration_ids>  (263) 
[123, 99]

>  <energy_score>  (263) 
33.734077468725445

>  <distance_score>  (263) 
15.672971289313006

>  <path>  (263) 
/opt/xchem-fragalysis-2/maxwin/BulkDock/SCRATCH/511015/C28377-P99/C28377-P99.minimised.mol

>  <scratch_subdir>  (263) 
/opt/xchem-fragalysis-2/maxwin/BulkDock/SCRATCH/511015/C28377-P99

>  <fragmenstein_runtime>  (263) 
42.46425247192383

>  <fragmenstein_outcome>  (263) 
too moved

>  <fragmenstein_mode>  (263) 
expansion

>  <fragmenstein_error>  (263) 


$$$$
C28380-P123
     RDKit          3D

 50 52  0  0  0  0  0  0  0  0999 V2000
   -5.1022  -11.6789   17.5362 C   0  0  0  0  0  0  0  0  0  0  0  0
   -6.6750  -11.2801   17.5717 C   0  0  0  0  0  0  0  0  0  0  0  0
   -6.3268   -9.7457   16.4848 C   0  0  0  0  0  0  0  0  0  0  0  0
   -5.5578   -9.7121   15.0376 N   0  0  0  0  0  0  0  0  0  0  0  0
   -6.8219   -9.1099   14.6127 C   0  0  0  0  0  0  0  0  0  0  0  0
   -4.4668   -8.9204   14.5827 C   0  0  0  0  0  0  0  0  0  0  0  0
   -3.8867   -8.0117   15.1118 O   0  0  0  0  0  0  0  0  0  0  0  0
   -4.1454   -9.2962   13.2051 C   0  0  0  0  0  0  0  0  0  0  0  0
   -3.5126  -10.4106   12.6329 C   0  0  0  0  0  0  0  0  0  0  0  0
   -3.5146  -10.3857   11.2927 N   0  0  0  0  0  0  0  0  0  0  0  0
   -4.1443   -9.2382   10.9960 N   0  0  0  0  0  0  0  0  0  0  0  0
   -4.5920   -8.5834   12.1009 C   0  0  0  0  0  0  0  0  0  0  0  0
   -7.5959  -12.4965   18.5137 N   0  0  0  0  0  0  0  0  0  0  0  0
   -8.9987  -13.0137   19.5830 C   0  0  0  0  0  0  0  0  0  0  0  0
   -9.6707  -12.6883   21.4750 C   0  0  0  0  0  0  0  0  0  0  0  0
   -9.1791  -11.4828   22.7611 C   0  0  0  0  0  0  0  0  0  0  0  0
  -10.2199  -11.2419   23.6576 C   0  0  0  0  0  0  0  0  0  0  0  0
  -11.3693  -11.6934   23.1064 N   0  0  0  0  0  0  0  0  0  0  0  0
  -12.5772  -11.1138   23.7548 C   0  0  0  0  0  0  0  0  0  0  0  0
  -13.9477  -10.6482   23.1740 C   0  0  0  0  0  0  0  0  0  0  0  0
  -14.9681  -10.8799   24.2929 C   0  0  0  0  0  0  0  0  0  0  0  0
  -14.1586  -10.8979   25.5751 C   0  0  0  0  0  0  0  0  0  0  0  0
  -12.8943  -11.6461   25.1793 C   0  0  0  0  0  0  0  0  0  0  0  0
  -11.0784  -12.7138   21.9809 N   0  0  0  0  0  0  0  0  0  0  0  0
   -4.8891  -12.5594   16.9263 H   0  0  0  0  0  0  0  0  0  0  0  0
   -4.6639  -11.8013   18.5267 H   0  0  0  0  0  0  0  0  0  0  0  0
   -4.4385  -10.9595   17.0432 H   0  0  0  0  0  0  0  0  0  0  0  0
   -7.3102  -10.7687   18.2315 H   0  0  0  0  0  0  0  0  0  0  0  0
   -5.4506   -9.3110   16.9808 H   0  0  0  0  0  0  0  0  0  0  0  0
   -6.9228   -8.8755   16.7838 H   0  0  0  0  0  0  0  0  0  0  0  0
   -7.7174   -9.7305   14.6842 H   0  0  0  0  0  0  0  0  0  0  0  0
   -6.7661   -9.0534   13.5154 H   0  0  0  0  0  0  0  0  0  0  0  0
   -6.8551   -8.0401   14.8614 H   0  0  0  0  0  0  0  0  0  0  0  0
   -3.0564  -11.2521   13.1377 H   0  0  0  0  0  0  0  0  0  0  0  0
   -4.2402   -8.9718   10.0212 H   0  0  0  0  0  0  0  0  0  0  0  0
   -5.1653   -7.6729   12.0139 H   0  0  0  0  0  0  0  0  0  0  0  0
   -7.9191  -13.0250   17.6994 H   0  0  0  0  0  0  0  0  0  0  0  0
   -8.8199  -14.0755   19.5819 H   0  0  0  0  0  0  0  0  0  0  0  0
   -9.7870  -12.7952   18.8514 H   0  0  0  0  0  0  0  0  0  0  0  0
   -8.1050  -11.2708   22.8623 H   0  0  0  0  0  0  0  0  0  0  0  0
  -10.2459  -10.9795   24.6913 H   0  0  0  0  0  0  0  0  0  0  0  0
  -12.1810  -10.1035   23.9745 H   0  0  0  0  0  0  0  0  0  0  0  0
  -14.3355  -11.1084   22.2698 H   0  0  0  0  0  0  0  0  0  0  0  0
  -13.8957   -9.5731   22.9534 H   0  0  0  0  0  0  0  0  0  0  0  0
  -15.4557  -11.8517   24.1490 H   0  0  0  0  0  0  0  0  0  0  0  0
  -15.7468  -10.1116   24.3047 H   0  0  0  0  0  0  0  0  0  0  0  0
  -14.6903  -11.3872   26.3961 H   0  0  0  0  0  0  0  0  0  0  0  0
  -13.9139   -9.8753   25.8855 H   0  0  0  0  0  0  0  0  0  0  0  0
  -12.0891  -11.4497   25.8945 H   0  0  0  0  0  0  0  0  0  0  0  0
  -13.0879  -12.7201   25.2025 H   0  0  0  0  0  0  0  0  0  0  0  0
  1  2  1  0
  2  3  1  0
  3  4  1  0
  4  5  1  0
  4  6  1  0
  6  7  2  0
  6  8  1  0
  8  9  1  0
  9 10  2  0
 10 11  1  0
 11 12  1  0
  2 13  1  0
 13 14  1  0
 14 15  1  0
 15 16  1  0
 16 17  2  0
 17 18  1  0
 18 19  1  0
 19 20  1  0
 20 21  1  0
 21 22  1  0
 22 23  1  0
 18 24  1  0
 12  8  2  0
 24 15  2  0
 23 19  1  0
  1 25  1  0
  1 26  1  0
  1 27  1  0
  2 28  1  0
  3 29  1  0
  3 30  1  0
  5 31  1  0
  5 32  1  0
  5 33  1  0
  9 34  1  0
 11 35  1  0
 12 36  1  0
 13 37  1  0
 14 38  1  0
 14 39  1  0
 16 40  1  0
 17 41  1  0
 19 42  1  0
 20 43  1  0
 20 44  1  0
 21 45  1  0
 21 46  1  0
 22 47  1  0
 22 48  1  0
 23 49  1  0
 23 50  1  0
M  END
>  <Energy>  (264) 
584.52477966304195

>  <compound_id>  (264) 
28380

>  <target_id>  (264) 
1

>  <reference_id>  (264) 
123

>  <inspiration_ids>  (264) 
[123, 99]

>  <energy_score>  (264) 
462.6228099866887

>  <distance_score>  (264) 
13.018825743718532

>  <path>  (264) 
/opt/xchem-fragalysis-2/maxwin/BulkDock/SCRATCH/511015/C28380-P123/C28380-P123.minimised.mol

>  <scratch_subdir>  (264) 
/opt/xchem-fragalysis-2/maxwin/BulkDock/SCRATCH/511015/C28380-P123

>  <fragmenstein_runtime>  (264) 
28.30421757698059

>  <fragmenstein_outcome>  (264) 
too moved

>  <fragmenstein_mode>  (264) 
expansion

>  <fragmenstein_error>  (264) 


$$$$
C28380-P99
     RDKit          3D

 50 52  0  0  0  0  0  0  0  0999 V2000
   -1.7638   -8.1315   19.2858 C   0  0  0  0  0  0  0  0  0  0  0  0
   -2.7509   -9.4399   19.7021 C   0  0  0  0  0  0  0  0  0  0  0  0
   -2.4364  -10.4274   18.3723 C   0  0  0  0  0  0  0  0  0  0  0  0
   -2.8269   -9.6183   17.0433 N   0  0  0  0  0  0  0  0  0  0  0  0
   -1.7596  -10.4831   16.4601 C   0  0  0  0  0  0  0  0  0  0  0  0
   -3.9989   -9.6723   16.2312 C   0  0  0  0  0  0  0  0  0  0  0  0
   -4.9482  -10.3992   16.2856 O   0  0  0  0  0  0  0  0  0  0  0  0
   -4.0926   -8.5915   15.2270 C   0  0  0  0  0  0  0  0  0  0  0  0
   -3.3819   -7.3828   15.0506 C   0  0  0  0  0  0  0  0  0  0  0  0
   -3.8694   -6.6128   14.0648 N   0  0  0  0  0  0  0  0  0  0  0  0
   -4.9007   -7.3425   13.5842 N   0  0  0  0  0  0  0  0  0  0  0  0
   -5.0707   -8.5167   14.2423 C   0  0  0  0  0  0  0  0  0  0  0  0
   -3.3495   -9.8927   21.5002 N   0  0  0  0  0  0  0  0  0  0  0  0
   -2.9865   -9.3128   22.9451 C   0  0  0  0  0  0  0  0  0  0  0  0
   -1.6779   -9.4554   24.3350 C   0  0  0  0  0  0  0  0  0  0  0  0
   -1.0346   -8.4342   25.1135 C   0  0  0  0  0  0  0  0  0  0  0  0
   -0.4494   -9.0624   26.1933 C   0  0  0  0  0  0  0  0  0  0  0  0
   -0.5878  -10.3932   25.9848 N   0  0  0  0  0  0  0  0  0  0  0  0
   -0.1669  -11.4829   26.8415 C   0  0  0  0  0  0  0  0  0  0  0  0
    1.0249  -11.1790   27.7517 C   0  0  0  0  0  0  0  0  0  0  0  0
    1.4651  -12.5513   28.2411 C   0  0  0  0  0  0  0  0  0  0  0  0
    1.1358  -13.5189   27.1073 C   0  0  0  0  0  0  0  0  0  0  0  0
    0.3223  -12.7253   26.0882 C   0  0  0  0  0  0  0  0  0  0  0  0
   -1.2412  -10.6568   24.8445 N   0  0  0  0  0  0  0  0  0  0  0  0
   -2.0227   -7.7175   18.3075 H   0  0  0  0  0  0  0  0  0  0  0  0
   -1.8185   -7.3052   20.0024 H   0  0  0  0  0  0  0  0  0  0  0  0
   -0.7220   -8.4639   19.2184 H   0  0  0  0  0  0  0  0  0  0  0  0
   -3.6441   -9.0800   19.4178 H   0  0  0  0  0  0  0  0  0  0  0  0
   -3.1011  -11.3030   18.4008 H   0  0  0  0  0  0  0  0  0  0  0  0
   -1.3755  -10.6992   18.5019 H   0  0  0  0  0  0  0  0  0  0  0  0
   -0.7489  -10.1845   16.7736 H   0  0  0  0  0  0  0  0  0  0  0  0
   -1.9636  -11.5641   16.5104 H   0  0  0  0  0  0  0  0  0  0  0  0
   -1.7547  -10.2767   15.3791 H   0  0  0  0  0  0  0  0  0  0  0  0
   -2.5427   -7.0213   15.6315 H   0  0  0  0  0  0  0  0  0  0  0  0
   -5.4231   -6.9868   12.7886 H   0  0  0  0  0  0  0  0  0  0  0  0
   -5.8727   -9.1936   13.9846 H   0  0  0  0  0  0  0  0  0  0  0  0
   -3.8072  -10.8211   21.4574 H   0  0  0  0  0  0  0  0  0  0  0  0
   -3.2565   -8.3001   22.6338 H   0  0  0  0  0  0  0  0  0  0  0  0
   -3.4685  -10.0801   23.4687 H   0  0  0  0  0  0  0  0  0  0  0  0
   -1.0984   -7.3646   24.9629 H   0  0  0  0  0  0  0  0  0  0  0  0
    0.0639   -8.6545   27.0521 H   0  0  0  0  0  0  0  0  0  0  0  0
   -1.0418  -11.7438   27.4521 H   0  0  0  0  0  0  0  0  0  0  0  0
    0.7614  -10.5187   28.5842 H   0  0  0  0  0  0  0  0  0  0  0  0
    1.8386  -10.7036   27.1893 H   0  0  0  0  0  0  0  0  0  0  0  0
    0.8986  -12.8288   29.1379 H   0  0  0  0  0  0  0  0  0  0  0  0
    2.5273  -12.5697   28.5035 H   0  0  0  0  0  0  0  0  0  0  0  0
    0.5599  -14.3683   27.4911 H   0  0  0  0  0  0  0  0  0  0  0  0
    2.0446  -13.9217   26.6476 H   0  0  0  0  0  0  0  0  0  0  0  0
   -0.5051  -13.3181   25.6844 H   0  0  0  0  0  0  0  0  0  0  0  0
    0.9656  -12.4432   25.2446 H   0  0  0  0  0  0  0  0  0  0  0  0
  1  2  1  0
  2  3  1  0
  3  4  1  0
  4  5  1  0
  4  6  1  0
  6  7  2  0
  6  8  1  0
  8  9  1  0
  9 10  2  0
 10 11  1  0
 11 12  1  0
  2 13  1  0
 13 14  1  0
 14 15  1  0
 15 16  1  0
 16 17  2  0
 17 18  1  0
 18 19  1  0
 19 20  1  0
 20 21  1  0
 21 22  1  0
 22 23  1  0
 18 24  1  0
 12  8  2  0
 24 15  2  0
 23 19  1  0
  1 25  1  0
  1 26  1  0
  1 27  1  0
  2 28  1  0
  3 29  1  0
  3 30  1  0
  5 31  1  0
  5 32  1  0
  5 33  1  0
  9 34  1  0
 11 35  1  0
 12 36  1  0
 13 37  1  0
 14 38  1  0
 14 39  1  0
 16 40  1  0
 17 41  1  0
 19 42  1  0
 20 43  1  0
 20 44  1  0
 21 45  1  0
 21 46  1  0
 22 47  1  0
 22 48  1  0
 23 49  1  0
 23 50  1  0
M  END
>  <Energy>  (265) 
336.72712536479963

>  <compound_id>  (265) 
28380

>  <target_id>  (265) 
1

>  <reference_id>  (265) 
99

>  <inspiration_ids>  (265) 
[123, 99]

>  <energy_score>  (265) 
214.8251556884411

>  <distance_score>  (265) 
15.189443315001336

>  <path>  (265) 
/opt/xchem-fragalysis-2/maxwin/BulkDock/SCRATCH/511015/C28380-P99/C28380-P99.minimised.mol

>  <scratch_subdir>  (265) 
/opt/xchem-fragalysis-2/maxwin/BulkDock/SCRATCH/511015/C28380-P99

>  <fragmenstein_runtime>  (265) 
43.19788575172424

>  <fragmenstein_outcome>  (265) 
too moved

>  <fragmenstein_mode>  (265) 
expansion

>  <fragmenstein_error>  (265) 


$$$$
C28381-P123
     RDKit          3D

 49 51  0  0  0  0  0  0  0  0999 V2000
   -5.7032  -10.6914   12.7619 C   0  0  0  0  0  0  0  0  0  0  0  0
   -6.4113   -9.5076   13.4165 C   0  0  0  0  0  0  0  0  0  0  0  0
   -7.2614  -10.2359   15.1749 C   0  0  0  0  0  0  0  0  0  0  0  0
   -7.8436  -11.5292   16.7322 C   0  0  0  0  0  0  0  0  0  0  0  0
   -7.8554  -12.0600   18.6481 N   0  0  0  0  0  0  0  0  0  0  0  0
   -9.1068  -13.0492   19.6910 C   0  0  0  0  0  0  0  0  0  0  0  0
  -10.0185  -13.5186   19.1210 O   0  0  0  0  0  0  0  0  0  0  0  0
   -9.3401  -13.3502   21.6900 C   0  0  0  0  0  0  0  0  0  0  0  0
  -10.6249  -14.6487   22.8577 C   0  0  0  0  0  0  0  0  0  0  0  0
   -9.3818  -15.8732   24.0230 C   0  0  0  0  0  0  0  0  0  0  0  0
   -7.9142  -14.6289   24.4452 N   0  0  0  0  0  0  0  0  0  0  0  0
   -7.7621  -14.6334   26.2705 C   0  0  0  0  0  0  0  0  0  0  0  0
   -6.7914  -14.8625   27.5510 C   0  0  0  0  0  0  0  0  0  0  0  0
   -7.4842  -15.7513   28.5708 C   0  0  0  0  0  0  0  0  0  0  0  0
   -8.8399  -15.1399   28.6055 C   0  0  0  0  0  0  0  0  0  0  0  0
   -9.1090  -14.7935   27.1429 C   0  0  0  0  0  0  0  0  0  0  0  0
   -7.9829  -13.0581   22.9759 N   0  0  0  0  0  0  0  0  0  0  0  0
   -6.9876   -8.4398   11.8888 N   0  0  0  0  0  0  0  0  0  0  0  0
   -6.0650   -7.2007   10.8021 C   0  0  0  0  0  0  0  0  0  0  0  0
   -4.9017   -7.0247   10.9337 O   0  0  0  0  0  0  0  0  0  0  0  0
   -6.8223   -5.8720    9.4482 C   0  0  0  0  0  0  0  0  0  0  0  0
   -6.6783   -4.7225    8.0327 C   0  0  0  0  0  0  0  0  0  0  0  0
   -7.6579   -4.3793    7.2015 N   0  0  0  0  0  0  0  0  0  0  0  0
   -8.5358   -4.2269    8.1151 N   0  0  0  0  0  0  0  0  0  0  0  0
   -8.0848   -4.8394    9.2851 C   0  0  0  0  0  0  0  0  0  0  0  0
   -6.4342  -11.3633   12.3035 H   0  0  0  0  0  0  0  0  0  0  0  0
   -5.0207  -10.3500   11.9775 H   0  0  0  0  0  0  0  0  0  0  0  0
   -5.1262  -11.2577   13.4984 H   0  0  0  0  0  0  0  0  0  0  0  0
   -5.6757   -8.8019   13.8252 H   0  0  0  0  0  0  0  0  0  0  0  0
   -7.7320  -10.9911   14.5237 H   0  0  0  0  0  0  0  0  0  0  0  0
   -6.2259  -10.4014   15.5126 H   0  0  0  0  0  0  0  0  0  0  0  0
   -6.8102  -11.8950   16.7428 H   0  0  0  0  0  0  0  0  0  0  0  0
   -8.1616  -10.5753   17.1753 H   0  0  0  0  0  0  0  0  0  0  0  0
   -7.0841  -11.7856   19.2468 H   0  0  0  0  0  0  0  0  0  0  0  0
  -11.4931  -15.2824   22.5706 H   0  0  0  0  0  0  0  0  0  0  0  0
   -9.5514  -16.3961   24.9991 H   0  0  0  0  0  0  0  0  0  0  0  0
   -7.2790  -13.6395   26.2505 H   0  0  0  0  0  0  0  0  0  0  0  0
   -6.7163  -13.8750   28.0502 H   0  0  0  0  0  0  0  0  0  0  0  0
   -5.7611  -15.1438   27.5468 H   0  0  0  0  0  0  0  0  0  0  0  0
   -7.5289  -16.7935   28.2607 H   0  0  0  0  0  0  0  0  0  0  0  0
   -6.9969  -15.7102   29.5500 H   0  0  0  0  0  0  0  0  0  0  0  0
   -8.8379  -14.2288   29.2169 H   0  0  0  0  0  0  0  0  0  0  0  0
   -9.5977  -15.8116   29.0213 H   0  0  0  0  0  0  0  0  0  0  0  0
   -9.7206  -15.6236   26.7866 H   0  0  0  0  0  0  0  0  0  0  0  0
   -9.6757  -13.8570   27.2144 H   0  0  0  0  0  0  0  0  0  0  0  0
   -7.9382   -8.5116   11.5720 H   0  0  0  0  0  0  0  0  0  0  0  0
   -5.8052   -4.1333    7.7109 H   0  0  0  0  0  0  0  0  0  0  0  0
   -9.3978   -3.7048    7.9576 H   0  0  0  0  0  0  0  0  0  0  0  0
   -9.0022   -4.7555    9.8866 H   0  0  0  0  0  0  0  0  0  0  0  0
  1  2  1  0
  2  3  1  0
  3  4  1  0
  4  5  1  0
  5  6  1  0
  6  7  2  0
  6  8  1  0
  8  9  1  0
  9 10  2  0
 10 11  1  0
 11 12  1  0
 12 13  1  0
 13 14  1  0
 14 15  1  0
 15 16  1  0
 11 17  1  0
  2 18  1  0
 18 19  1  0
 19 20  2  0
 19 21  1  0
 21 22  1  0
 22 23  2  0
 23 24  1  0
 24 25  1  0
 17  8  2  0
 25 21  2  0
 16 12  1  0
  1 26  1  0
  1 27  1  0
  1 28  1  0
  2 29  1  0
  3 30  1  0
  3 31  1  0
  4 32  1  0
  4 33  1  0
  5 34  1  0
  9 35  1  0
 10 36  1  0
 12 37  1  0
 13 38  1  0
 13 39  1  0
 14 40  1  0
 14 41  1  0
 15 42  1  0
 15 43  1  0
 16 44  1  0
 16 45  1  0
 18 46  1  0
 22 47  1  0
 24 48  1  0
 25 49  1  0
M  END
>  <Energy>  (266) 
1937.033329219581

>  <compound_id>  (266) 
28381

>  <target_id>  (266) 
1

>  <reference_id>  (266) 
123

>  <inspiration_ids>  (266) 
[123, 99]

>  <energy_score>  (266) 
1874.9841456235667

>  <distance_score>  (266) 
10.862850216502073

>  <path>  (266) 
/opt/xchem-fragalysis-2/maxwin/BulkDock/SCRATCH/511015/C28381-P123/C28381-P123.minimised.mol

>  <scratch_subdir>  (266) 
/opt/xchem-fragalysis-2/maxwin/BulkDock/SCRATCH/511015/C28381-P123

>  <fragmenstein_runtime>  (266) 
26.670299530029297

>  <fragmenstein_outcome>  (266) 
too moved

>  <fragmenstein_mode>  (266) 
expansion

>  <fragmenstein_error>  (266) 


$$$$
C28381-P99
     RDKit          3D

 49 51  0  0  0  0  0  0  0  0999 V2000
   -3.4624  -11.0265   17.9590 C   0  0  0  0  0  0  0  0  0  0  0  0
   -4.7574  -10.2776   18.2826 C   0  0  0  0  0  0  0  0  0  0  0  0
   -5.8281  -11.1596   18.9989 C   0  0  0  0  0  0  0  0  0  0  0  0
   -5.2352  -11.7379   20.4349 C   0  0  0  0  0  0  0  0  0  0  0  0
   -6.1932  -11.8027   22.1815 N   0  0  0  0  0  0  0  0  0  0  0  0
   -5.7242  -11.1703   23.7614 C   0  0  0  0  0  0  0  0  0  0  0  0
   -4.7391  -10.5022   24.0031 O   0  0  0  0  0  0  0  0  0  0  0  0
   -6.5753  -11.2895   25.0086 C   0  0  0  0  0  0  0  0  0  0  0  0
   -7.5066  -10.3162   25.5142 C   0  0  0  0  0  0  0  0  0  0  0  0
   -7.8621  -10.7207   26.7848 C   0  0  0  0  0  0  0  0  0  0  0  0
   -7.0856  -11.8047   27.0582 N   0  0  0  0  0  0  0  0  0  0  0  0
   -7.0764  -12.5617   28.2917 C   0  0  0  0  0  0  0  0  0  0  0  0
   -5.7241  -12.5914   29.0203 C   0  0  0  0  0  0  0  0  0  0  0  0
   -5.5745  -14.0096   29.5759 C   0  0  0  0  0  0  0  0  0  0  0  0
   -6.9315  -14.6734   29.3914 C   0  0  0  0  0  0  0  0  0  0  0  0
   -7.4749  -14.0301   28.1272 C   0  0  0  0  0  0  0  0  0  0  0  0
   -6.2701  -12.1306   26.0386 N   0  0  0  0  0  0  0  0  0  0  0  0
   -5.1826   -9.6014   17.0550 N   0  0  0  0  0  0  0  0  0  0  0  0
   -5.3414   -8.2062   16.7558 C   0  0  0  0  0  0  0  0  0  0  0  0
   -5.2444   -7.2435   17.4565 O   0  0  0  0  0  0  0  0  0  0  0  0
   -5.5662   -7.9287   15.3138 C   0  0  0  0  0  0  0  0  0  0  0  0
   -5.5592   -6.6288   14.7230 C   0  0  0  0  0  0  0  0  0  0  0  0
   -5.6517   -6.6440   13.3924 N   0  0  0  0  0  0  0  0  0  0  0  0
   -5.7668   -7.9504   13.1042 N   0  0  0  0  0  0  0  0  0  0  0  0
   -5.7402   -8.7552   14.2162 C   0  0  0  0  0  0  0  0  0  0  0  0
   -3.6460  -11.8335   17.2425 H   0  0  0  0  0  0  0  0  0  0  0  0
   -2.7333  -10.3496   17.4978 H   0  0  0  0  0  0  0  0  0  0  0  0
   -2.9873  -11.4472   18.8481 H   0  0  0  0  0  0  0  0  0  0  0  0
   -4.4997   -9.4648   18.9735 H   0  0  0  0  0  0  0  0  0  0  0  0
   -6.0984  -12.0167   18.3739 H   0  0  0  0  0  0  0  0  0  0  0  0
   -6.7297  -10.5606   19.1115 H   0  0  0  0  0  0  0  0  0  0  0  0
   -4.4788  -10.9341   20.6918 H   0  0  0  0  0  0  0  0  0  0  0  0
   -4.4000  -12.4102   20.2040 H   0  0  0  0  0  0  0  0  0  0  0  0
   -6.9963  -12.3813   22.2840 H   0  0  0  0  0  0  0  0  0  0  0  0
   -7.8590   -9.4381   24.9922 H   0  0  0  0  0  0  0  0  0  0  0  0
   -8.5455  -10.2995   27.5083 H   0  0  0  0  0  0  0  0  0  0  0  0
   -7.8075  -12.0842   28.9591 H   0  0  0  0  0  0  0  0  0  0  0  0
   -5.7222  -11.8571   29.8343 H   0  0  0  0  0  0  0  0  0  0  0  0
   -4.8762  -12.3465   28.3714 H   0  0  0  0  0  0  0  0  0  0  0  0
   -5.2581  -14.0095   30.6234 H   0  0  0  0  0  0  0  0  0  0  0  0
   -4.8137  -14.5521   29.0031 H   0  0  0  0  0  0  0  0  0  0  0  0
   -7.5824  -14.4432   30.2431 H   0  0  0  0  0  0  0  0  0  0  0  0
   -6.8538  -15.7612   29.3057 H   0  0  0  0  0  0  0  0  0  0  0  0
   -7.0101  -14.4828   27.2442 H   0  0  0  0  0  0  0  0  0  0  0  0
   -8.5583  -14.1555   28.0336 H   0  0  0  0  0  0  0  0  0  0  0  0
   -5.2569  -10.1322   16.1985 H   0  0  0  0  0  0  0  0  0  0  0  0
   -5.4530   -5.6788   15.2341 H   0  0  0  0  0  0  0  0  0  0  0  0
   -5.8628   -8.2213   12.1290 H   0  0  0  0  0  0  0  0  0  0  0  0
   -5.8169   -9.8264   14.1044 H   0  0  0  0  0  0  0  0  0  0  0  0
  1  2  1  0
  2  3  1  0
  3  4  1  0
  4  5  1  0
  5  6  1  0
  6  7  2  0
  6  8  1  0
  8  9  1  0
  9 10  2  0
 10 11  1  0
 11 12  1  0
 12 13  1  0
 13 14  1  0
 14 15  1  0
 15 16  1  0
 11 17  1  0
  2 18  1  0
 18 19  1  0
 19 20  2  0
 19 21  1  0
 21 22  1  0
 22 23  2  0
 23 24  1  0
 24 25  1  0
 17  8  2  0
 25 21  2  0
 16 12  1  0
  1 26  1  0
  1 27  1  0
  1 28  1  0
  2 29  1  0
  3 30  1  0
  3 31  1  0
  4 32  1  0
  4 33  1  0
  5 34  1  0
  9 35  1  0
 10 36  1  0
 12 37  1  0
 13 38  1  0
 13 39  1  0
 14 40  1  0
 14 41  1  0
 15 42  1  0
 15 43  1  0
 16 44  1  0
 16 45  1  0
 18 46  1  0
 22 47  1  0
 24 48  1  0
 25 49  1  0
M  END
>  <Energy>  (267) 
195.18481903270811

>  <compound_id>  (267) 
28381

>  <target_id>  (267) 
1

>  <reference_id>  (267) 
99

>  <inspiration_ids>  (267) 
[123, 99]

>  <energy_score>  (267) 
133.13563543666305

>  <distance_score>  (267) 
13.66954677450625

>  <path>  (267) 
/opt/xchem-fragalysis-2/maxwin/BulkDock/SCRATCH/511015/C28381-P99/C28381-P99.minimised.mol

>  <scratch_subdir>  (267) 
/opt/xchem-fragalysis-2/maxwin/BulkDock/SCRATCH/511015/C28381-P99

>  <fragmenstein_runtime>  (267) 
37.126829862594604

>  <fragmenstein_outcome>  (267) 
too moved

>  <fragmenstein_mode>  (267) 
expansion

>  <fragmenstein_error>  (267) 


$$$$
C28382-P123
     RDKit          3D

 36 38  0  0  0  0  0  0  0  0999 V2000
   -7.0817   -5.5229   13.3918 O   0  0  0  0  0  0  0  0  0  0  0  0
   -6.7195   -6.4848   12.7283 C   0  0  0  0  0  0  0  0  0  0  0  0
   -5.7701   -6.2087   10.9847 C   0  0  0  0  0  0  0  0  0  0  0  0
   -6.8610   -5.3512    9.4356 C   0  0  0  0  0  0  0  0  0  0  0  0
   -6.6167   -4.4872    7.8837 C   0  0  0  0  0  0  0  0  0  0  0  0
   -7.5991   -4.1179    7.0803 N   0  0  0  0  0  0  0  0  0  0  0  0
   -8.5682   -4.1243    7.9325 N   0  0  0  0  0  0  0  0  0  0  0  0
   -8.2080   -4.6819    9.1400 C   0  0  0  0  0  0  0  0  0  0  0  0
   -7.0169   -8.0958   12.9821 N   0  0  0  0  0  0  0  0  0  0  0  0
   -8.0794   -8.9568   14.2173 C   0  0  0  0  0  0  0  0  0  0  0  0
   -8.3123  -10.0589   13.4657 C   0  0  0  0  0  0  0  0  0  0  0  0
   -6.9559   -9.9958   14.1393 C   0  0  0  0  0  0  0  0  0  0  0  0
   -7.0466   -9.9452   15.4315 N   0  0  0  0  0  0  0  0  0  0  0  0
   -8.1762  -10.6624   15.0788 N   0  0  0  0  0  0  0  0  0  0  0  0
   -7.8423  -11.6834   16.7636 C   0  0  0  0  0  0  0  0  0  0  0  0
   -7.7367  -11.7101   18.4460 C   0  0  0  0  0  0  0  0  0  0  0  0
   -9.0205  -12.5166   18.7239 C   0  0  0  0  0  0  0  0  0  0  0  0
   -8.2284  -13.6580   18.5408 C   0  0  0  0  0  0  0  0  0  0  0  0
   -7.7586  -13.2801   17.0875 C   0  0  0  0  0  0  0  0  0  0  0  0
   -4.7361   -5.8838   11.1772 H   0  0  0  0  0  0  0  0  0  0  0  0
   -5.6967   -7.2496   10.6191 H   0  0  0  0  0  0  0  0  0  0  0  0
   -5.6835   -4.0208    7.5480 H   0  0  0  0  0  0  0  0  0  0  0  0
   -9.4547   -3.6863    7.6953 H   0  0  0  0  0  0  0  0  0  0  0  0
   -9.1196   -4.6291    9.7380 H   0  0  0  0  0  0  0  0  0  0  0  0
   -6.5436   -8.5972   12.3586 H   0  0  0  0  0  0  0  0  0  0  0  0
   -8.9187  -10.9460   13.2581 H   0  0  0  0  0  0  0  0  0  0  0  0
   -5.8723  -10.2566   13.9110 H   0  0  0  0  0  0  0  0  0  0  0  0
   -6.8793  -11.0611   16.9579 H   0  0  0  0  0  0  0  0  0  0  0  0
   -6.7952  -12.1928   18.7458 H   0  0  0  0  0  0  0  0  0  0  0  0
   -7.7740  -10.7570   18.9487 H   0  0  0  0  0  0  0  0  0  0  0  0
   -9.8897  -12.3689   18.0773 H   0  0  0  0  0  0  0  0  0  0  0  0
   -9.4481  -12.6227   19.6708 H   0  0  0  0  0  0  0  0  0  0  0  0
   -8.2263  -14.7418   18.2160 H   0  0  0  0  0  0  0  0  0  0  0  0
   -8.7822  -14.2505   19.2816 H   0  0  0  0  0  0  0  0  0  0  0  0
   -6.9163  -13.9502   16.8008 H   0  0  0  0  0  0  0  0  0  0  0  0
   -8.1599  -13.3748   16.1279 H   0  0  0  0  0  0  0  0  0  0  0  0
  1  2  2  0
  2  3  1  0
  3  4  1  0
  4  5  1  0
  5  6  2  0
  6  7  1  0
  7  8  1  0
  2  9  1  0
  9 10  1  0
 10 11  2  0
 11 12  1  0
 12 13  2  0
 13 14  1  0
 14 15  1  0
 15 16  1  0
 16 17  1  0
 17 18  1  0
 18 19  1  0
  8  4  2  0
 14 10  1  0
 19 15  1  0
  3 20  1  0
  3 21  1  0
  5 22  1  0
  7 23  1  0
  8 24  1  0
  9 25  1  0
 11 26  1  0
 12 27  1  0
 15 28  1  0
 16 29  1  0
 16 30  1  0
 17 31  1  0
 17 32  1  0
 18 33  1  0
 18 34  1  0
 19 35  1  0
 19 36  1  0
M  END
>  <Energy>  (268) 
1125.3703035262438

>  <compound_id>  (268) 
28382

>  <target_id>  (268) 
1

>  <reference_id>  (268) 
123

>  <inspiration_ids>  (268) 
[123, 99]

>  <energy_score>  (268) 
1040.9425284482882

>  <distance_score>  (268) 
12.932703686639858

>  <path>  (268) 
/opt/xchem-fragalysis-2/maxwin/BulkDock/SCRATCH/511015/C28382-P123/C28382-P123.minimised.mol

>  <scratch_subdir>  (268) 
/opt/xchem-fragalysis-2/maxwin/BulkDock/SCRATCH/511015/C28382-P123

>  <fragmenstein_runtime>  (268) 
21.89523148536682

>  <fragmenstein_outcome>  (268) 
too moved

>  <fragmenstein_mode>  (268) 
expansion

>  <fragmenstein_error>  (268) 


$$$$
C28382-P99
     RDKit          3D

 36 38  0  0  0  0  0  0  0  0999 V2000
  -10.2022   -9.7472   14.0214 O   0  0  0  0  0  0  0  0  0  0  0  0
   -9.0449  -10.0522   13.8330 C   0  0  0  0  0  0  0  0  0  0  0  0
   -7.8619   -8.6574   13.9748 C   0  0  0  0  0  0  0  0  0  0  0  0
   -7.6582   -6.9133   14.8490 C   0  0  0  0  0  0  0  0  0  0  0  0
   -7.0040   -6.5488   16.1359 C   0  0  0  0  0  0  0  0  0  0  0  0
   -6.9759   -5.2541   16.4586 N   0  0  0  0  0  0  0  0  0  0  0  0
   -7.6759   -4.6860   15.4928 N   0  0  0  0  0  0  0  0  0  0  0  0
   -8.2082   -5.5942   14.6312 C   0  0  0  0  0  0  0  0  0  0  0  0
   -8.3660  -11.5310   13.5824 N   0  0  0  0  0  0  0  0  0  0  0  0
   -9.0031  -12.9301   13.5238 C   0  0  0  0  0  0  0  0  0  0  0  0
   -9.6898  -13.2087   12.3348 C   0  0  0  0  0  0  0  0  0  0  0  0
  -10.3114  -14.4413   12.4843 C   0  0  0  0  0  0  0  0  0  0  0  0
   -9.8581  -15.1888   13.4789 N   0  0  0  0  0  0  0  0  0  0  0  0
   -8.8235  -14.5038   14.1571 N   0  0  0  0  0  0  0  0  0  0  0  0
   -7.6067  -15.6361   14.9615 C   0  0  0  0  0  0  0  0  0  0  0  0
   -6.8820  -16.8866   14.1087 C   0  0  0  0  0  0  0  0  0  0  0  0
   -6.1668  -17.9353   14.9904 C   0  0  0  0  0  0  0  0  0  0  0  0
   -6.2881  -17.4253   16.3847 C   0  0  0  0  0  0  0  0  0  0  0  0
   -7.6595  -16.7775   16.3012 C   0  0  0  0  0  0  0  0  0  0  0  0
   -7.4509   -9.3286   14.7150 H   0  0  0  0  0  0  0  0  0  0  0  0
   -7.2107   -8.5577   13.1136 H   0  0  0  0  0  0  0  0  0  0  0  0
   -6.5700   -7.2295   16.8592 H   0  0  0  0  0  0  0  0  0  0  0  0
   -7.8212   -3.6813   15.5172 H   0  0  0  0  0  0  0  0  0  0  0  0
   -8.9186   -5.1828   13.9246 H   0  0  0  0  0  0  0  0  0  0  0  0
   -7.4026  -11.4264   13.3796 H   0  0  0  0  0  0  0  0  0  0  0  0
   -9.9074  -12.4891   11.5614 H   0  0  0  0  0  0  0  0  0  0  0  0
  -11.0741  -14.8675   11.8452 H   0  0  0  0  0  0  0  0  0  0  0  0
   -7.1056  -14.8497   15.5124 H   0  0  0  0  0  0  0  0  0  0  0  0
   -7.6526  -17.4115   13.5276 H   0  0  0  0  0  0  0  0  0  0  0  0
   -6.0932  -16.5480   13.4318 H   0  0  0  0  0  0  0  0  0  0  0  0
   -5.1193  -18.0643   14.6972 H   0  0  0  0  0  0  0  0  0  0  0  0
   -6.6537  -18.9114   14.8745 H   0  0  0  0  0  0  0  0  0  0  0  0
   -5.4794  -16.7163   16.5726 H   0  0  0  0  0  0  0  0  0  0  0  0
   -6.2402  -18.2328   17.1214 H   0  0  0  0  0  0  0  0  0  0  0  0
   -8.0287  -16.3850   17.2442 H   0  0  0  0  0  0  0  0  0  0  0  0
   -8.2504  -17.6698   16.0539 H   0  0  0  0  0  0  0  0  0  0  0  0
  1  2  2  0
  2  3  1  0
  3  4  1  0
  4  5  1  0
  5  6  2  0
  6  7  1  0
  7  8  1  0
  2  9  1  0
  9 10  1  0
 10 11  2  0
 11 12  1  0
 12 13  2  0
 13 14  1  0
 14 15  1  0
 15 16  1  0
 16 17  1  0
 17 18  1  0
 18 19  1  0
  8  4  2  0
 14 10  1  0
 19 15  1  0
  3 20  1  0
  3 21  1  0
  5 22  1  0
  7 23  1  0
  8 24  1  0
  9 25  1  0
 11 26  1  0
 12 27  1  0
 15 28  1  0
 16 29  1  0
 16 30  1  0
 17 31  1  0
 17 32  1  0
 18 33  1  0
 18 34  1  0
 19 35  1  0
 19 36  1  0
M  END
>  <Energy>  (269) 
403.94697749263088

>  <compound_id>  (269) 
28382

>  <target_id>  (269) 
1

>  <reference_id>  (269) 
99

>  <inspiration_ids>  (269) 
[123, 99]

>  <energy_score>  (269) 
319.5192024146654

>  <distance_score>  (269) 
14.474560906723509

>  <path>  (269) 
/opt/xchem-fragalysis-2/maxwin/BulkDock/SCRATCH/511015/C28382-P99/C28382-P99.minimised.mol

>  <scratch_subdir>  (269) 
/opt/xchem-fragalysis-2/maxwin/BulkDock/SCRATCH/511015/C28382-P99

>  <fragmenstein_runtime>  (269) 
28.761362314224243

>  <fragmenstein_outcome>  (269) 
too moved

>  <fragmenstein_mode>  (269) 
expansion

>  <fragmenstein_error>  (269) 


$$$$
C28383-P123
     RDKit          3D

 49 51  0  0  0  0  0  0  0  0999 V2000
   -5.4938   -9.5029   11.6732 C   0  0  0  0  0  0  0  0  0  0  0  0
   -6.6425   -8.5239   11.9383 C   0  0  0  0  0  0  0  0  0  0  0  0
   -7.4531   -9.6800   13.5024 C   0  0  0  0  0  0  0  0  0  0  0  0
   -7.6200  -10.3017   15.4943 C   0  0  0  0  0  0  0  0  0  0  0  0
   -7.8929  -11.7511   16.8382 N   0  0  0  0  0  0  0  0  0  0  0  0
   -8.8439  -11.8077   18.4889 C   0  0  0  0  0  0  0  0  0  0  0  0
   -9.4504  -10.8284   18.7253 O   0  0  0  0  0  0  0  0  0  0  0  0
   -9.1927  -13.1895   19.9346 C   0  0  0  0  0  0  0  0  0  0  0  0
  -10.2503  -13.7366   19.3803 C   0  0  0  0  0  0  0  0  0  0  0  0
  -11.3466  -13.4178   20.8727 C   0  0  0  0  0  0  0  0  0  0  0  0
  -11.0128  -12.6161   21.8680 N   0  0  0  0  0  0  0  0  0  0  0  0
  -10.1975  -13.4562   21.6526 N   0  0  0  0  0  0  0  0  0  0  0  0
  -11.3615  -14.9882   22.5133 C   0  0  0  0  0  0  0  0  0  0  0  0
  -12.2184  -15.7958   24.0856 C   0  0  0  0  0  0  0  0  0  0  0  0
  -13.5188  -16.6143   24.1715 C   0  0  0  0  0  0  0  0  0  0  0  0
  -14.0206  -16.7624   22.8025 C   0  0  0  0  0  0  0  0  0  0  0  0
  -12.9733  -16.0555   21.8833 C   0  0  0  0  0  0  0  0  0  0  0  0
   -6.6907   -7.6907   10.0946 N   0  0  0  0  0  0  0  0  0  0  0  0
   -6.9176   -5.8593    9.5169 C   0  0  0  0  0  0  0  0  0  0  0  0
   -6.9562   -5.0282   10.3525 O   0  0  0  0  0  0  0  0  0  0  0  0
   -7.2671   -5.0865    7.9066 C   0  0  0  0  0  0  0  0  0  0  0  0
   -8.4474   -5.0642    7.0988 C   0  0  0  0  0  0  0  0  0  0  0  0
   -8.5102   -4.1363    6.1434 N   0  0  0  0  0  0  0  0  0  0  0  0
   -7.3503   -3.5196    6.2531 N   0  0  0  0  0  0  0  0  0  0  0  0
   -6.6030   -4.0036    7.2811 C   0  0  0  0  0  0  0  0  0  0  0  0
   -5.8345  -10.5422   11.6312 H   0  0  0  0  0  0  0  0  0  0  0  0
   -4.7557   -9.4317   12.4737 H   0  0  0  0  0  0  0  0  0  0  0  0
   -5.0650   -9.3079   10.6980 H   0  0  0  0  0  0  0  0  0  0  0  0
   -7.5229   -8.9793   11.4768 H   0  0  0  0  0  0  0  0  0  0  0  0
   -7.3813  -10.6843   13.0597 H   0  0  0  0  0  0  0  0  0  0  0  0
   -8.5029   -9.3723   13.3972 H   0  0  0  0  0  0  0  0  0  0  0  0
   -8.3267   -9.5647   15.8955 H   0  0  0  0  0  0  0  0  0  0  0  0
   -6.6097  -10.0285   15.8273 H   0  0  0  0  0  0  0  0  0  0  0  0
   -7.3401  -12.5959   16.7665 H   0  0  0  0  0  0  0  0  0  0  0  0
  -10.4650  -13.1284   18.5224 H   0  0  0  0  0  0  0  0  0  0  0  0
  -11.9622  -14.2307   20.8505 H   0  0  0  0  0  0  0  0  0  0  0  0
  -11.4502  -15.5607   21.5941 H   0  0  0  0  0  0  0  0  0  0  0  0
  -12.3830  -15.1424   24.9534 H   0  0  0  0  0  0  0  0  0  0  0  0
  -11.5512  -16.6005   24.4435 H   0  0  0  0  0  0  0  0  0  0  0  0
  -13.3659  -17.5842   24.6590 H   0  0  0  0  0  0  0  0  0  0  0  0
  -14.2543  -16.1481   24.8420 H   0  0  0  0  0  0  0  0  0  0  0  0
  -15.0280  -16.3404   22.6910 H   0  0  0  0  0  0  0  0  0  0  0  0
  -14.2610  -17.8023   22.5785 H   0  0  0  0  0  0  0  0  0  0  0  0
  -12.9232  -16.5722   20.9185 H   0  0  0  0  0  0  0  0  0  0  0  0
  -13.6641  -15.4238   21.4406 H   0  0  0  0  0  0  0  0  0  0  0  0
   -6.7600   -8.2975    9.2850 H   0  0  0  0  0  0  0  0  0  0  0  0
   -9.2906   -5.7143    7.1324 H   0  0  0  0  0  0  0  0  0  0  0  0
   -7.1389   -2.7577    5.6163 H   0  0  0  0  0  0  0  0  0  0  0  0
   -5.6610   -3.5107    7.4644 H   0  0  0  0  0  0  0  0  0  0  0  0
  1  2  1  0
  2  3  1  0
  3  4  1  0
  4  5  1  0
  5  6  1  0
  6  7  2  0
  6  8  1  0
  8  9  2  0
  9 10  1  0
 10 11  2  0
 11 12  1  0
 12 13  1  0
 13 14  1  0
 14 15  1  0
 15 16  1  0
 16 17  1  0
  2 18  1  0
 18 19  1  0
 19 20  2  0
 19 21  1  0
 21 22  1  0
 22 23  2  0
 23 24  1  0
 24 25  1  0
 12  8  1  0
 17 13  1  0
 25 21  2  0
  1 26  1  0
  1 27  1  0
  1 28  1  0
  2 29  1  0
  3 30  1  0
  3 31  1  0
  4 32  1  0
  4 33  1  0
  5 34  1  0
  9 35  1  0
 10 36  1  0
 13 37  1  0
 14 38  1  0
 14 39  1  0
 15 40  1  0
 15 41  1  0
 16 42  1  0
 16 43  1  0
 17 44  1  0
 17 45  1  0
 18 46  1  0
 22 47  1  0
 24 48  1  0
 25 49  1  0
M  END
>  <Energy>  (270) 
1658.7742272340681

>  <compound_id>  (270) 
28383

>  <target_id>  (270) 
1

>  <reference_id>  (270) 
123

>  <inspiration_ids>  (270) 
[123, 99]

>  <energy_score>  (270) 
1648.798739658229

>  <distance_score>  (270) 
11.408022456484744

>  <path>  (270) 
/opt/xchem-fragalysis-2/maxwin/BulkDock/SCRATCH/511015/C28383-P123/C28383-P123.minimised.mol

>  <scratch_subdir>  (270) 
/opt/xchem-fragalysis-2/maxwin/BulkDock/SCRATCH/511015/C28383-P123

>  <fragmenstein_runtime>  (270) 
49.30624604225159

>  <fragmenstein_outcome>  (270) 
too moved

>  <fragmenstein_mode>  (270) 
expansion

>  <fragmenstein_error>  (270) 


$$$$
C28383-P99
     RDKit          3D

 49 51  0  0  0  0  0  0  0  0999 V2000
   -6.4703  -11.0949   18.1324 C   0  0  0  0  0  0  0  0  0  0  0  0
   -7.7022  -11.0167   17.2186 C   0  0  0  0  0  0  0  0  0  0  0  0
   -9.0657  -10.9343   18.0004 C   0  0  0  0  0  0  0  0  0  0  0  0
   -9.2393  -12.3250   18.8425 C   0  0  0  0  0  0  0  0  0  0  0  0
  -10.0663  -13.5975   19.7975 N   0  0  0  0  0  0  0  0  0  0  0  0
  -10.9001  -13.5803   21.5516 C   0  0  0  0  0  0  0  0  0  0  0  0
  -11.0036  -12.5255   22.1696 O   0  0  0  0  0  0  0  0  0  0  0  0
  -11.4716  -15.3556   22.4688 C   0  0  0  0  0  0  0  0  0  0  0  0
  -12.7055  -16.1964   21.8674 C   0  0  0  0  0  0  0  0  0  0  0  0
  -13.4978  -16.7967   22.8462 C   0  0  0  0  0  0  0  0  0  0  0  0
  -12.8595  -16.7553   23.9763 N   0  0  0  0  0  0  0  0  0  0  0  0
  -11.4856  -16.6959   23.6993 N   0  0  0  0  0  0  0  0  0  0  0  0
  -10.4587  -18.0905   24.4900 C   0  0  0  0  0  0  0  0  0  0  0  0
   -9.6747  -19.6957   23.8618 C   0  0  0  0  0  0  0  0  0  0  0  0
   -9.7782  -20.9726   24.7188 C   0  0  0  0  0  0  0  0  0  0  0  0
  -11.2549  -21.0483   24.7419 C   0  0  0  0  0  0  0  0  0  0  0  0
  -11.5792  -19.5701   25.0031 C   0  0  0  0  0  0  0  0  0  0  0  0
   -7.4066   -9.9827   16.2344 N   0  0  0  0  0  0  0  0  0  0  0  0
   -7.1132   -8.5900   16.3934 C   0  0  0  0  0  0  0  0  0  0  0  0
   -7.1146   -7.8995   17.3685 O   0  0  0  0  0  0  0  0  0  0  0  0
   -6.6422   -7.9727   15.1277 C   0  0  0  0  0  0  0  0  0  0  0  0
   -6.2693   -8.5323   13.8739 C   0  0  0  0  0  0  0  0  0  0  0  0
   -5.7545   -7.6390   13.0243 N   0  0  0  0  0  0  0  0  0  0  0  0
   -5.8108   -6.4834   13.7069 N   0  0  0  0  0  0  0  0  0  0  0  0
   -6.3282   -6.6303   14.9596 C   0  0  0  0  0  0  0  0  0  0  0  0
   -6.3827  -10.1947   18.7446 H   0  0  0  0  0  0  0  0  0  0  0  0
   -6.4751  -11.9621   18.7915 H   0  0  0  0  0  0  0  0  0  0  0  0
   -5.5528  -11.1657   17.5351 H   0  0  0  0  0  0  0  0  0  0  0  0
   -7.7168  -11.9372   16.6251 H   0  0  0  0  0  0  0  0  0  0  0  0
   -9.0521  -10.0278   18.5980 H   0  0  0  0  0  0  0  0  0  0  0  0
   -9.8834  -10.8134   17.2762 H   0  0  0  0  0  0  0  0  0  0  0  0
   -9.9463  -12.5966   18.0676 H   0  0  0  0  0  0  0  0  0  0  0  0
   -8.3223  -12.8970   18.6683 H   0  0  0  0  0  0  0  0  0  0  0  0
   -9.9950  -14.5516   19.4826 H   0  0  0  0  0  0  0  0  0  0  0  0
  -13.0127  -16.0786   20.8482 H   0  0  0  0  0  0  0  0  0  0  0  0
  -14.4964  -17.2129   22.7880 H   0  0  0  0  0  0  0  0  0  0  0  0
  -10.0449  -17.5554   25.3637 H   0  0  0  0  0  0  0  0  0  0  0  0
   -8.6513  -19.6416   23.4680 H   0  0  0  0  0  0  0  0  0  0  0  0
  -10.2964  -20.1503   23.0777 H   0  0  0  0  0  0  0  0  0  0  0  0
   -9.3702  -20.9439   25.7307 H   0  0  0  0  0  0  0  0  0  0  0  0
   -9.3424  -21.8383   24.2080 H   0  0  0  0  0  0  0  0  0  0  0  0
  -11.6980  -21.4039   23.8035 H   0  0  0  0  0  0  0  0  0  0  0  0
  -11.5945  -21.7200   25.5355 H   0  0  0  0  0  0  0  0  0  0  0  0
  -12.6335  -19.4130   24.7403 H   0  0  0  0  0  0  0  0  0  0  0  0
  -11.3405  -19.6292   26.0137 H   0  0  0  0  0  0  0  0  0  0  0  0
   -7.3859  -10.2132   15.2522 H   0  0  0  0  0  0  0  0  0  0  0  0
   -6.3175   -9.5624   13.5453 H   0  0  0  0  0  0  0  0  0  0  0  0
   -5.4661   -5.6391   13.2592 H   0  0  0  0  0  0  0  0  0  0  0  0
   -6.4055   -5.7922   15.6393 H   0  0  0  0  0  0  0  0  0  0  0  0
  1  2  1  0
  2  3  1  0
  3  4  1  0
  4  5  1  0
  5  6  1  0
  6  7  2  0
  6  8  1  0
  8  9  2  0
  9 10  1  0
 10 11  2  0
 11 12  1  0
 12 13  1  0
 13 14  1  0
 14 15  1  0
 15 16  1  0
 16 17  1  0
  2 18  1  0
 18 19  1  0
 19 20  2  0
 19 21  1  0
 21 22  1  0
 22 23  2  0
 23 24  1  0
 24 25  1  0
 12  8  1  0
 17 13  1  0
 25 21  2  0
  1 26  1  0
  1 27  1  0
  1 28  1  0
  2 29  1  0
  3 30  1  0
  3 31  1  0
  4 32  1  0
  4 33  1  0
  5 34  1  0
  9 35  1  0
 10 36  1  0
 13 37  1  0
 14 38  1  0
 14 39  1  0
 15 40  1  0
 15 41  1  0
 16 42  1  0
 16 43  1  0
 17 44  1  0
 17 45  1  0
 18 46  1  0
 22 47  1  0
 24 48  1  0
 25 49  1  0
M  END
>  <Energy>  (271) 
645.69541115088782

>  <compound_id>  (271) 
28383

>  <target_id>  (271) 
1

>  <reference_id>  (271) 
99

>  <inspiration_ids>  (271) 
[123, 99]

>  <energy_score>  (271) 
635.7199235750242

>  <distance_score>  (271) 
12.603666571578941

>  <path>  (271) 
/opt/xchem-fragalysis-2/maxwin/BulkDock/SCRATCH/511015/C28383-P99/C28383-P99.minimised.mol

>  <scratch_subdir>  (271) 
/opt/xchem-fragalysis-2/maxwin/BulkDock/SCRATCH/511015/C28383-P99

>  <fragmenstein_runtime>  (271) 
61.15835738182068

>  <fragmenstein_outcome>  (271) 
too moved

>  <fragmenstein_mode>  (271) 
expansion

>  <fragmenstein_error>  (271) 


$$$$
C28384-P123
     RDKit          3D

 50 52  0  0  0  0  0  0  0  0999 V2000
   -4.0252  -11.0082   11.3065 C   0  0  0  0  0  0  0  0  0  0  0  0
   -4.0171  -10.2072   12.6112 C   0  0  0  0  0  0  0  0  0  0  0  0
   -4.9877  -10.7759   13.6906 C   0  0  0  0  0  0  0  0  0  0  0  0
   -4.8280  -12.2407   13.9225 N   0  0  0  0  0  0  0  0  0  0  0  0
   -5.4735  -12.7164   15.1881 C   0  0  0  0  0  0  0  0  0  0  0  0
   -5.5787  -14.2587   15.3776 C   0  0  0  0  0  0  0  0  0  0  0  0
   -6.6418  -15.1031   14.9585 C   0  0  0  0  0  0  0  0  0  0  0  0
   -6.4067  -16.3425   15.5122 C   0  0  0  0  0  0  0  0  0  0  0  0
   -5.1886  -16.2485   16.1124 N   0  0  0  0  0  0  0  0  0  0  0  0
   -4.4066  -17.3127   16.7102 C   0  0  0  0  0  0  0  0  0  0  0  0
   -2.9729  -17.3963   16.1716 C   0  0  0  0  0  0  0  0  0  0  0  0
   -2.5101  -18.8291   16.4394 C   0  0  0  0  0  0  0  0  0  0  0  0
   -3.7395  -19.5950   16.9176 C   0  0  0  0  0  0  0  0  0  0  0  0
   -4.9217  -18.7381   16.4938 C   0  0  0  0  0  0  0  0  0  0  0  0
   -4.7018  -14.9806   16.1020 N   0  0  0  0  0  0  0  0  0  0  0  0
   -4.1701   -8.6758   12.4051 C   0  0  0  0  0  0  0  0  0  0  0  0
   -5.1224   -8.2780   11.3676 N   0  0  0  0  0  0  0  0  0  0  0  0
   -6.4355   -8.6945   11.1200 C   0  0  0  0  0  0  0  0  0  0  0  0
   -7.0830   -9.5331   11.6409 O   0  0  0  0  0  0  0  0  0  0  0  0
   -7.3710   -7.8604   10.0046 C   0  0  0  0  0  0  0  0  0  0  0  0
   -7.2064   -5.9014    9.5037 C   0  0  0  0  0  0  0  0  0  0  0  0
   -8.6676   -4.9680    9.7896 N   0  0  0  0  0  0  0  0  0  0  0  0
   -9.8302   -5.9391   10.9787 N   0  0  0  0  0  0  0  0  0  0  0  0
   -9.1324   -8.0707   10.7577 C   0  0  0  0  0  0  0  0  0  0  0  0
   -3.6785  -12.0334   11.4748 H   0  0  0  0  0  0  0  0  0  0  0  0
   -5.0227  -11.0697   10.8638 H   0  0  0  0  0  0  0  0  0  0  0  0
   -3.3458  -10.5655   10.5735 H   0  0  0  0  0  0  0  0  0  0  0  0
   -3.0131  -10.3430   13.0418 H   0  0  0  0  0  0  0  0  0  0  0  0
   -4.7828  -10.2501   14.6318 H   0  0  0  0  0  0  0  0  0  0  0  0
   -6.0306  -10.5820   13.4371 H   0  0  0  0  0  0  0  0  0  0  0  0
   -5.2600  -12.7411   13.1460 H   0  0  0  0  0  0  0  0  0  0  0  0
   -4.9163  -12.3082   16.0397 H   0  0  0  0  0  0  0  0  0  0  0  0
   -6.4956  -12.3198   15.2387 H   0  0  0  0  0  0  0  0  0  0  0  0
   -7.4948  -14.8169   14.3592 H   0  0  0  0  0  0  0  0  0  0  0  0
   -6.9716  -17.2622   15.4692 H   0  0  0  0  0  0  0  0  0  0  0  0
   -4.3821  -17.1135   17.7877 H   0  0  0  0  0  0  0  0  0  0  0  0
   -2.3141  -16.6652   16.6522 H   0  0  0  0  0  0  0  0  0  0  0  0
   -2.9444  -17.1973   15.0927 H   0  0  0  0  0  0  0  0  0  0  0  0
   -1.7164  -18.8599   17.1933 H   0  0  0  0  0  0  0  0  0  0  0  0
   -2.1070  -19.2717   15.5217 H   0  0  0  0  0  0  0  0  0  0  0  0
   -3.7168  -19.6856   18.0103 H   0  0  0  0  0  0  0  0  0  0  0  0
   -3.7872  -20.6050   16.5001 H   0  0  0  0  0  0  0  0  0  0  0  0
   -5.8169  -18.9541   17.0857 H   0  0  0  0  0  0  0  0  0  0  0  0
   -5.1562  -18.9241   15.4383 H   0  0  0  0  0  0  0  0  0  0  0  0
   -4.5173   -8.2107   13.3350 H   0  0  0  0  0  0  0  0  0  0  0  0
   -3.1685   -8.3005   12.2315 H   0  0  0  0  0  0  0  0  0  0  0  0
   -4.9176   -7.4734   10.7838 H   0  0  0  0  0  0  0  0  0  0  0  0
   -6.4911   -5.3046    9.0273 H   0  0  0  0  0  0  0  0  0  0  0  0
  -10.1380   -5.4114   11.8080 H   0  0  0  0  0  0  0  0  0  0  0  0
   -9.3782   -8.8750   11.5188 H   0  0  0  0  0  0  0  0  0  0  0  0
  1  2  1  0
  2  3  1  0
  3  4  1  0
  4  5  1  0
  5  6  1  0
  6  7  1  0
  7  8  2  0
  8  9  1  0
  9 10  1  0
 10 11  1  0
 11 12  1  0
 12 13  1  0
 13 14  1  0
  9 15  1  0
  2 16  1  0
 16 17  1  0
 17 18  1  0
 18 19  2  0
 18 20  1  0
 20 21  1  0
 21 22  2  0
 22 23  1  0
 23 24  1  0
 15  6  2  0
 24 20  2  0
 14 10  1  0
  1 25  1  0
  1 26  1  0
  1 27  1  0
  2 28  1  0
  3 29  1  0
  3 30  1  0
  4 31  1  0
  5 32  1  0
  5 33  1  0
  7 34  1  0
  8 35  1  0
 10 36  1  0
 11 37  1  0
 11 38  1  0
 12 39  1  0
 12 40  1  0
 13 41  1  0
 13 42  1  0
 14 43  1  0
 14 44  1  0
 16 45  1  0
 16 46  1  0
 17 47  1  0
 21 48  1  0
 23 49  1  0
 24 50  1  0
M  END
>  <Energy>  (272) 
781.42613755371303

>  <compound_id>  (272) 
28384

>  <target_id>  (272) 
1

>  <reference_id>  (272) 
123

>  <inspiration_ids>  (272) 
[123, 99]

>  <energy_score>  (272) 
711.3362822899567

>  <distance_score>  (272) 
13.502636603664804

>  <path>  (272) 
/opt/xchem-fragalysis-2/maxwin/BulkDock/SCRATCH/511015/C28384-P123/C28384-P123.minimised.mol

>  <scratch_subdir>  (272) 
/opt/xchem-fragalysis-2/maxwin/BulkDock/SCRATCH/511015/C28384-P123

>  <fragmenstein_runtime>  (272) 
31.17526149749756

>  <fragmenstein_outcome>  (272) 
too moved

>  <fragmenstein_mode>  (272) 
expansion

>  <fragmenstein_error>  (272) 


$$$$
C28384-P99
     RDKit          3D

 50 52  0  0  0  0  0  0  0  0999 V2000
  -11.1373  -10.4061   17.3650 C   0  0  0  0  0  0  0  0  0  0  0  0
   -9.8348  -11.1837   17.2210 C   0  0  0  0  0  0  0  0  0  0  0  0
   -9.4476  -12.2250   18.4418 C   0  0  0  0  0  0  0  0  0  0  0  0
  -10.0466  -13.4699   19.5742 N   0  0  0  0  0  0  0  0  0  0  0  0
  -11.2661  -13.7028   21.1209 C   0  0  0  0  0  0  0  0  0  0  0  0
  -12.0131  -15.6536   21.3323 C   0  0  0  0  0  0  0  0  0  0  0  0
  -12.3178  -16.1273   22.8985 C   0  0  0  0  0  0  0  0  0  0  0  0
  -13.5080  -16.7882   23.0736 C   0  0  0  0  0  0  0  0  0  0  0  0
  -14.0758  -16.7278   21.8448 N   0  0  0  0  0  0  0  0  0  0  0  0
  -15.4743  -17.1875   21.6250 C   0  0  0  0  0  0  0  0  0  0  0  0
  -15.9795  -18.4001   22.4614 C   0  0  0  0  0  0  0  0  0  0  0  0
  -16.6590  -19.3504   21.4794 C   0  0  0  0  0  0  0  0  0  0  0  0
  -16.0716  -19.0048   20.1247 C   0  0  0  0  0  0  0  0  0  0  0  0
  -15.9112  -17.4962   20.1886 C   0  0  0  0  0  0  0  0  0  0  0  0
  -13.1759  -16.2299   20.8243 N   0  0  0  0  0  0  0  0  0  0  0  0
   -8.6392  -10.1671   17.1709 C   0  0  0  0  0  0  0  0  0  0  0  0
   -8.0871   -9.7736   15.8997 N   0  0  0  0  0  0  0  0  0  0  0  0
   -7.1193   -8.7695   15.5669 C   0  0  0  0  0  0  0  0  0  0  0  0
   -6.5822   -7.9491   16.2488 O   0  0  0  0  0  0  0  0  0  0  0  0
   -6.6847   -8.8073   14.1601 C   0  0  0  0  0  0  0  0  0  0  0  0
   -5.7535   -7.9104   13.5631 C   0  0  0  0  0  0  0  0  0  0  0  0
   -5.5478   -8.1446   12.2676 N   0  0  0  0  0  0  0  0  0  0  0  0
   -6.3511   -9.1821   12.0076 N   0  0  0  0  0  0  0  0  0  0  0  0
   -7.0267   -9.6364   13.1101 C   0  0  0  0  0  0  0  0  0  0  0  0
  -11.1219   -9.7077   18.2020 H   0  0  0  0  0  0  0  0  0  0  0  0
  -11.3103   -9.8041   16.4649 H   0  0  0  0  0  0  0  0  0  0  0  0
  -11.9940  -11.0677   17.4730 H   0  0  0  0  0  0  0  0  0  0  0  0
   -9.8995  -11.6565   16.2454 H   0  0  0  0  0  0  0  0  0  0  0  0
   -9.0663  -11.4543   19.0424 H   0  0  0  0  0  0  0  0  0  0  0  0
   -8.4919  -12.6872   18.1525 H   0  0  0  0  0  0  0  0  0  0  0  0
   -9.2070  -13.9125   19.9724 H   0  0  0  0  0  0  0  0  0  0  0  0
  -10.8407  -13.9603   22.0880 H   0  0  0  0  0  0  0  0  0  0  0  0
  -11.1365  -12.8037   21.7242 H   0  0  0  0  0  0  0  0  0  0  0  0
  -11.9092  -15.7559   23.7778 H   0  0  0  0  0  0  0  0  0  0  0  0
  -14.0303  -17.1471   23.9455 H   0  0  0  0  0  0  0  0  0  0  0  0
  -16.0893  -16.3598   22.0010 H   0  0  0  0  0  0  0  0  0  0  0  0
  -15.2058  -18.9220   23.0278 H   0  0  0  0  0  0  0  0  0  0  0  0
  -16.7091  -18.0660   23.2101 H   0  0  0  0  0  0  0  0  0  0  0  0
  -17.7402  -19.1669   21.4759 H   0  0  0  0  0  0  0  0  0  0  0  0
  -16.5003  -20.4000   21.7439 H   0  0  0  0  0  0  0  0  0  0  0  0
  -15.1048  -19.4974   19.9851 H   0  0  0  0  0  0  0  0  0  0  0  0
  -16.7250  -19.3141   19.3035 H   0  0  0  0  0  0  0  0  0  0  0  0
  -16.8895  -17.0308   20.0083 H   0  0  0  0  0  0  0  0  0  0  0  0
  -15.2456  -17.1191   19.4204 H   0  0  0  0  0  0  0  0  0  0  0  0
   -8.8827   -9.2467   17.7156 H   0  0  0  0  0  0  0  0  0  0  0  0
   -7.7638  -10.5811   17.6868 H   0  0  0  0  0  0  0  0  0  0  0  0
   -8.2589  -10.3473   15.0862 H   0  0  0  0  0  0  0  0  0  0  0  0
   -5.2297   -7.0931   14.0426 H   0  0  0  0  0  0  0  0  0  0  0  0
   -6.3888   -9.5282   11.0544 H   0  0  0  0  0  0  0  0  0  0  0  0
   -7.6908  -10.4826   13.0309 H   0  0  0  0  0  0  0  0  0  0  0  0
  1  2  1  0
  2  3  1  0
  3  4  1  0
  4  5  1  0
  5  6  1  0
  6  7  1  0
  7  8  2  0
  8  9  1  0
  9 10  1  0
 10 11  1  0
 11 12  1  0
 12 13  1  0
 13 14  1  0
  9 15  1  0
  2 16  1  0
 16 17  1  0
 17 18  1  0
 18 19  2  0
 18 20  1  0
 20 21  1  0
 21 22  2  0
 22 23  1  0
 23 24  1  0
 15  6  2  0
 24 20  2  0
 14 10  1  0
  1 25  1  0
  1 26  1  0
  1 27  1  0
  2 28  1  0
  3 29  1  0
  3 30  1  0
  4 31  1  0
  5 32  1  0
  5 33  1  0
  7 34  1  0
  8 35  1  0
 10 36  1  0
 11 37  1  0
 11 38  1  0
 12 39  1  0
 12 40  1  0
 13 41  1  0
 13 42  1  0
 14 43  1  0
 14 44  1  0
 16 45  1  0
 16 46  1  0
 17 47  1  0
 21 48  1  0
 23 49  1  0
 24 50  1  0
M  END
>  <Energy>  (273) 
395.72255420035651

>  <compound_id>  (273) 
28384

>  <target_id>  (273) 
1

>  <reference_id>  (273) 
99

>  <inspiration_ids>  (273) 
[123, 99]

>  <energy_score>  (273) 
325.6326989365957

>  <distance_score>  (273) 
12.583414632181793

>  <path>  (273) 
/opt/xchem-fragalysis-2/maxwin/BulkDock/SCRATCH/511015/C28384-P99/C28384-P99.minimised.mol

>  <scratch_subdir>  (273) 
/opt/xchem-fragalysis-2/maxwin/BulkDock/SCRATCH/511015/C28384-P99

>  <fragmenstein_runtime>  (273) 
64.50745415687561

>  <fragmenstein_outcome>  (273) 
too moved

>  <fragmenstein_mode>  (273) 
expansion

>  <fragmenstein_error>  (273) 


$$$$
C28385-P123
     RDKit          3D

 48 50  0  0  0  0  0  0  0  0999 V2000
   -4.4553   -6.4963   14.0168 O   0  0  0  0  0  0  0  0  0  0  0  0
   -5.3283   -7.3100   14.0800 C   0  0  0  0  0  0  0  0  0  0  0  0
   -6.3031   -7.5502   15.0862 N   0  0  0  0  0  0  0  0  0  0  0  0
   -6.6074   -6.8344   16.2969 C   0  0  0  0  0  0  0  0  0  0  0  0
   -7.4971   -5.6123   16.0279 C   0  0  0  0  0  0  0  0  0  0  0  0
   -8.7288   -6.0471   15.4248 O   0  0  0  0  0  0  0  0  0  0  0  0
   -7.8504   -4.8743   17.3412 C   0  0  0  0  0  0  0  0  0  0  0  0
   -8.9243   -5.5041   18.1608 N   0  0  0  0  0  0  0  0  0  0  0  0
   -8.4533   -6.4161   19.2412 C   0  0  0  0  0  0  0  0  0  0  0  0
   -9.5230   -6.7775   20.2949 C   0  0  0  0  0  0  0  0  0  0  0  0
  -10.8912   -7.1248   20.1327 C   0  0  0  0  0  0  0  0  0  0  0  0
  -11.4035   -7.2753   21.4074 C   0  0  0  0  0  0  0  0  0  0  0  0
  -10.3949   -6.8956   22.2421 N   0  0  0  0  0  0  0  0  0  0  0  0
  -10.5202   -6.1596   23.4854 C   0  0  0  0  0  0  0  0  0  0  0  0
  -11.7036   -6.5121   24.3844 C   0  0  0  0  0  0  0  0  0  0  0  0
  -11.7157   -5.3670   25.3862 C   0  0  0  0  0  0  0  0  0  0  0  0
  -11.3190   -4.1331   24.5780 C   0  0  0  0  0  0  0  0  0  0  0  0
  -10.7094   -4.6509   23.2739 C   0  0  0  0  0  0  0  0  0  0  0  0
   -9.1940   -6.8891   21.6038 N   0  0  0  0  0  0  0  0  0  0  0  0
   -5.5253   -8.2384   12.9706 C   0  0  0  0  0  0  0  0  0  0  0  0
   -5.8351   -9.6145   12.9619 C   0  0  0  0  0  0  0  0  0  0  0  0
   -5.9775  -10.1119   11.7323 N   0  0  0  0  0  0  0  0  0  0  0  0
   -5.8090   -9.0442   10.9438 N   0  0  0  0  0  0  0  0  0  0  0  0
   -5.4615   -7.9274   11.6322 C   0  0  0  0  0  0  0  0  0  0  0  0
   -6.9388   -8.2714   14.7643 H   0  0  0  0  0  0  0  0  0  0  0  0
   -5.6638   -6.5235   16.7561 H   0  0  0  0  0  0  0  0  0  0  0  0
   -7.1057   -7.5611   16.9405 H   0  0  0  0  0  0  0  0  0  0  0  0
   -7.0003   -4.9305   15.3278 H   0  0  0  0  0  0  0  0  0  0  0  0
   -9.2282   -5.2417   15.1952 H   0  0  0  0  0  0  0  0  0  0  0  0
   -8.2582   -3.8974   17.0524 H   0  0  0  0  0  0  0  0  0  0  0  0
   -6.9556   -4.6656   17.9384 H   0  0  0  0  0  0  0  0  0  0  0  0
   -9.5330   -6.0378   17.5350 H   0  0  0  0  0  0  0  0  0  0  0  0
   -8.0901   -7.3550   18.8142 H   0  0  0  0  0  0  0  0  0  0  0  0
   -7.6193   -5.9400   19.7713 H   0  0  0  0  0  0  0  0  0  0  0  0
  -11.4446   -7.2135   19.2079 H   0  0  0  0  0  0  0  0  0  0  0  0
  -12.4132   -7.4664   21.7406 H   0  0  0  0  0  0  0  0  0  0  0  0
   -9.5813   -6.3008   24.0324 H   0  0  0  0  0  0  0  0  0  0  0  0
  -11.5989   -7.4850   24.8703 H   0  0  0  0  0  0  0  0  0  0  0  0
  -12.6482   -6.5115   23.8292 H   0  0  0  0  0  0  0  0  0  0  0  0
  -10.9725   -5.5496   26.1717 H   0  0  0  0  0  0  0  0  0  0  0  0
  -12.6900   -5.2492   25.8697 H   0  0  0  0  0  0  0  0  0  0  0  0
  -10.6045   -3.5196   25.1370 H   0  0  0  0  0  0  0  0  0  0  0  0
  -12.1920   -3.5066   24.3644 H   0  0  0  0  0  0  0  0  0  0  0  0
   -9.7635   -4.1498   23.0417 H   0  0  0  0  0  0  0  0  0  0  0  0
  -11.3952   -4.4476   22.4418 H   0  0  0  0  0  0  0  0  0  0  0  0
   -5.9550  -10.2831   13.8052 H   0  0  0  0  0  0  0  0  0  0  0  0
   -5.9393   -9.1547    9.9443 H   0  0  0  0  0  0  0  0  0  0  0  0
   -5.2421   -7.0050   11.1211 H   0  0  0  0  0  0  0  0  0  0  0  0
  1  2  2  0
  2  3  1  0
  3  4  1  0
  4  5  1  0
  5  6  1  0
  5  7  1  0
  7  8  1  0
  8  9  1  0
  9 10  1  0
 10 11  1  0
 11 12  2  0
 12 13  1  0
 13 14  1  0
 14 15  1  0
 15 16  1  0
 16 17  1  0
 17 18  1  0
 13 19  1  0
  2 20  1  0
 20 21  1  0
 21 22  2  0
 22 23  1  0
 23 24  1  0
 19 10  2  0
 24 20  2  0
 18 14  1  0
  3 25  1  0
  4 26  1  0
  4 27  1  0
  5 28  1  0
  6 29  1  0
  7 30  1  0
  7 31  1  0
  8 32  1  0
  9 33  1  0
  9 34  1  0
 11 35  1  0
 12 36  1  0
 14 37  1  0
 15 38  1  0
 15 39  1  0
 16 40  1  0
 16 41  1  0
 17 42  1  0
 17 43  1  0
 18 44  1  0
 18 45  1  0
 21 46  1  0
 23 47  1  0
 24 48  1  0
M  END
>  <Energy>  (274) 
74.339206768553524

>  <compound_id>  (274) 
28385

>  <target_id>  (274) 
1

>  <reference_id>  (274) 
123

>  <inspiration_ids>  (274) 
[123, 99]

>  <energy_score>  (274) 
-33.279658997655815

>  <distance_score>  (274) 
14.362379906079125

>  <path>  (274) 
/opt/xchem-fragalysis-2/maxwin/BulkDock/SCRATCH/511015/C28385-P123/C28385-P123.minimised.mol

>  <scratch_subdir>  (274) 
/opt/xchem-fragalysis-2/maxwin/BulkDock/SCRATCH/511015/C28385-P123

>  <fragmenstein_runtime>  (274) 
52.995495557785034

>  <fragmenstein_outcome>  (274) 
too moved

>  <fragmenstein_mode>  (274) 
expansion

>  <fragmenstein_error>  (274) 


$$$$
C28385-P99
     RDKit          3D

 48 50  0  0  0  0  0  0  0  0999 V2000
   -6.2067  -12.2757   18.3985 O   0  0  0  0  0  0  0  0  0  0  0  0
   -7.3942  -12.3050   18.2090 C   0  0  0  0  0  0  0  0  0  0  0  0
   -8.4471  -13.1593   18.8126 N   0  0  0  0  0  0  0  0  0  0  0  0
   -8.3707  -14.2729   20.0164 C   0  0  0  0  0  0  0  0  0  0  0  0
   -7.9708  -16.2672   20.6404 C   0  0  0  0  0  0  0  0  0  0  0  0
   -8.9974  -16.0356   19.5413 O   0  0  0  0  0  0  0  0  0  0  0  0
   -7.9252  -18.0352   21.8805 C   0  0  0  0  0  0  0  0  0  0  0  0
   -8.5615  -19.5482   23.1187 N   0  0  0  0  0  0  0  0  0  0  0  0
   -9.6953  -20.4399   24.5531 C   0  0  0  0  0  0  0  0  0  0  0  0
  -10.0455  -21.6474   26.2078 C   0  0  0  0  0  0  0  0  0  0  0  0
  -11.0983  -22.7316   26.3752 C   0  0  0  0  0  0  0  0  0  0  0  0
  -11.4016  -23.3300   27.6996 C   0  0  0  0  0  0  0  0  0  0  0  0
  -10.8158  -22.8097   29.0484 N   0  0  0  0  0  0  0  0  0  0  0  0
  -11.0820  -23.2870   30.9682 C   0  0  0  0  0  0  0  0  0  0  0  0
  -10.9753  -24.7366   32.5037 C   0  0  0  0  0  0  0  0  0  0  0  0
  -12.4704  -25.0381   34.1744 C   0  0  0  0  0  0  0  0  0  0  0  0
  -11.9195  -23.1097   35.1662 C   0  0  0  0  0  0  0  0  0  0  0  0
  -11.3128  -22.8944   32.7806 C   0  0  0  0  0  0  0  0  0  0  0  0
   -9.8599  -21.8081   27.8639 N   0  0  0  0  0  0  0  0  0  0  0  0
   -7.8944  -11.3596   17.1561 C   0  0  0  0  0  0  0  0  0  0  0  0
   -9.1526  -10.7562   16.8833 C   0  0  0  0  0  0  0  0  0  0  0  0
   -9.1540   -9.9601   15.8038 N   0  0  0  0  0  0  0  0  0  0  0  0
   -7.8941  -10.0398   15.3556 N   0  0  0  0  0  0  0  0  0  0  0  0
   -7.1033  -10.8271   16.1395 C   0  0  0  0  0  0  0  0  0  0  0  0
   -9.3483  -12.8546   18.4827 H   0  0  0  0  0  0  0  0  0  0  0  0
   -9.0237  -13.6442   20.6278 H   0  0  0  0  0  0  0  0  0  0  0  0
   -7.3708  -13.8363   20.0001 H   0  0  0  0  0  0  0  0  0  0  0  0
   -7.8808  -16.1138   21.6357 H   0  0  0  0  0  0  0  0  0  0  0  0
   -9.8833  -15.7974   19.8443 H   0  0  0  0  0  0  0  0  0  0  0  0
   -7.3859  -18.7146   21.1903 H   0  0  0  0  0  0  0  0  0  0  0  0
   -7.0726  -17.8188   22.5282 H   0  0  0  0  0  0  0  0  0  0  0  0
   -8.0777  -20.3556   22.7002 H   0  0  0  0  0  0  0  0  0  0  0  0
  -10.3157  -19.5887   24.8554 H   0  0  0  0  0  0  0  0  0  0  0  0
  -10.2688  -21.0538   23.8426 H   0  0  0  0  0  0  0  0  0  0  0  0
  -11.6659  -23.0662   25.5158 H   0  0  0  0  0  0  0  0  0  0  0  0
  -12.0924  -24.1167   27.8264 H   0  0  0  0  0  0  0  0  0  0  0  0
  -10.8561  -22.1925   30.9277 H   0  0  0  0  0  0  0  0  0  0  0  0
  -11.0303  -25.7837   32.4817 H   0  0  0  0  0  0  0  0  0  0  0  0
   -9.8472  -24.7495   32.6250 H   0  0  0  0  0  0  0  0  0  0  0  0
  -13.4652  -25.2411   33.7772 H   0  0  0  0  0  0  0  0  0  0  0  0
  -12.6497  -25.5242   35.2451 H   0  0  0  0  0  0  0  0  0  0  0  0
  -12.9182  -23.0129   35.7467 H   0  0  0  0  0  0  0  0  0  0  0  0
  -11.1678  -23.2576   35.9787 H   0  0  0  0  0  0  0  0  0  0  0  0
  -10.1916  -22.8806   32.4311 H   0  0  0  0  0  0  0  0  0  0  0  0
  -12.1215  -22.0093   32.1724 H   0  0  0  0  0  0  0  0  0  0  0  0
  -10.0805  -10.8673   17.4298 H   0  0  0  0  0  0  0  0  0  0  0  0
   -7.6435   -9.5290   14.5145 H   0  0  0  0  0  0  0  0  0  0  0  0
   -6.0557  -10.9721   15.9145 H   0  0  0  0  0  0  0  0  0  0  0  0
  1  2  2  0
  2  3  1  0
  3  4  1  0
  4  5  1  0
  5  6  1  0
  5  7  1  0
  7  8  1  0
  8  9  1  0
  9 10  1  0
 10 11  1  0
 11 12  2  0
 12 13  1  0
 13 14  1  0
 14 15  1  0
 15 16  1  0
 16 17  1  0
 17 18  1  0
 13 19  1  0
  2 20  1  0
 20 21  1  0
 21 22  2  0
 22 23  1  0
 23 24  1  0
 19 10  2  0
 24 20  2  0
 18 14  1  0
  3 25  1  0
  4 26  1  0
  4 27  1  0
  5 28  1  0
  6 29  1  0
  7 30  1  0
  7 31  1  0
  8 32  1  0
  9 33  1  0
  9 34  1  0
 11 35  1  0
 12 36  1  0
 14 37  1  0
 15 38  1  0
 15 39  1  0
 16 40  1  0
 16 41  1  0
 17 42  1  0
 17 43  1  0
 18 44  1  0
 18 45  1  0
 21 46  1  0
 23 47  1  0
 24 48  1  0
M  END
>  <Energy>  (275) 
2406.2175953378169

>  <compound_id>  (275) 
28385

>  <target_id>  (275) 
1

>  <reference_id>  (275) 
99

>  <inspiration_ids>  (275) 
[123, 99]

>  <energy_score>  (275) 
2298.598729571623

>  <distance_score>  (275) 
14.09267266980047

>  <path>  (275) 
/opt/xchem-fragalysis-2/maxwin/BulkDock/SCRATCH/511015/C28385-P99/C28385-P99.minimised.mol

>  <scratch_subdir>  (275) 
/opt/xchem-fragalysis-2/maxwin/BulkDock/SCRATCH/511015/C28385-P99

>  <fragmenstein_runtime>  (275) 
48.16618609428406

>  <fragmenstein_outcome>  (275) 
too moved

>  <fragmenstein_mode>  (275) 
expansion

>  <fragmenstein_error>  (275) 


$$$$
C28388-P123
     RDKit          3D

 40 42  0  0  0  0  0  0  0  0999 V2000
   -5.5589   -6.3609   11.0630 C   0  0  0  0  0  0  0  0  0  0  0  0
   -6.4668   -6.5692    9.7438 C   0  0  0  0  0  0  0  0  0  0  0  0
   -5.9685   -8.1928    9.7771 N   0  0  0  0  0  0  0  0  0  0  0  0
   -6.4074   -9.2222   10.7218 C   0  0  0  0  0  0  0  0  0  0  0  0
   -5.4020  -10.1424   11.3885 C   0  0  0  0  0  0  0  0  0  0  0  0
   -4.2016   -9.7432   11.9442 C   0  0  0  0  0  0  0  0  0  0  0  0
   -3.3926  -10.8673   11.8352 C   0  0  0  0  0  0  0  0  0  0  0  0
   -4.0764  -11.9683   11.5406 N   0  0  0  0  0  0  0  0  0  0  0  0
   -5.3879  -11.5790   11.5021 N   0  0  0  0  0  0  0  0  0  0  0  0
   -6.3688  -12.7124   11.3899 C   0  0  0  0  0  0  0  0  0  0  0  0
   -5.7937  -14.1609   11.5828 C   0  0  0  0  0  0  0  0  0  0  0  0
   -6.9743  -15.0839   11.8831 C   0  0  0  0  0  0  0  0  0  0  0  0
   -7.9634  -14.2440   12.6554 C   0  0  0  0  0  0  0  0  0  0  0  0
   -7.6683  -12.7826   12.2509 C   0  0  0  0  0  0  0  0  0  0  0  0
   -7.2175   -5.1441    8.6405 C   0  0  0  0  0  0  0  0  0  0  0  0
   -8.4767   -4.3570    8.7379 C   0  0  0  0  0  0  0  0  0  0  0  0
   -8.7574   -3.4427    7.8108 N   0  0  0  0  0  0  0  0  0  0  0  0
   -7.8365   -3.6587    6.9155 N   0  0  0  0  0  0  0  0  0  0  0  0
   -6.9782   -4.6390    7.3091 C   0  0  0  0  0  0  0  0  0  0  0  0
   -4.6094   -6.2171   10.6011 H   0  0  0  0  0  0  0  0  0  0  0  0
   -5.5107   -7.2007   11.7657 H   0  0  0  0  0  0  0  0  0  0  0  0
   -5.8131   -5.5625   11.7635 H   0  0  0  0  0  0  0  0  0  0  0  0
   -7.2004   -7.2838    9.3893 H   0  0  0  0  0  0  0  0  0  0  0  0
   -5.0092   -8.0986   10.1163 H   0  0  0  0  0  0  0  0  0  0  0  0
   -7.2345   -8.9649   11.3735 H   0  0  0  0  0  0  0  0  0  0  0  0
   -6.5973   -9.8770    9.9113 H   0  0  0  0  0  0  0  0  0  0  0  0
   -3.8877   -8.7386   12.1756 H   0  0  0  0  0  0  0  0  0  0  0  0
   -2.3222  -10.9443   11.9741 H   0  0  0  0  0  0  0  0  0  0  0  0
   -6.6546  -12.6772   10.3346 H   0  0  0  0  0  0  0  0  0  0  0  0
   -5.2838  -14.4865   10.6675 H   0  0  0  0  0  0  0  0  0  0  0  0
   -5.0467  -14.2331   12.3697 H   0  0  0  0  0  0  0  0  0  0  0  0
   -6.6702  -15.9853   12.4232 H   0  0  0  0  0  0  0  0  0  0  0  0
   -7.4275  -15.4060   10.9376 H   0  0  0  0  0  0  0  0  0  0  0  0
   -7.8812  -14.4477   13.7177 H   0  0  0  0  0  0  0  0  0  0  0  0
   -8.9917  -14.5166   12.3893 H   0  0  0  0  0  0  0  0  0  0  0  0
   -8.5164  -12.5092   11.6193 H   0  0  0  0  0  0  0  0  0  0  0  0
   -7.6888  -12.0627   13.0630 H   0  0  0  0  0  0  0  0  0  0  0  0
   -9.2446   -4.4471    9.4854 H   0  0  0  0  0  0  0  0  0  0  0  0
   -7.8697   -3.1535    6.0355 H   0  0  0  0  0  0  0  0  0  0  0  0
   -6.2996   -4.8882    6.5226 H   0  0  0  0  0  0  0  0  0  0  0  0
  1  2  1  0
  2  3  1  0
  3  4  1  0
  4  5  1  0
  5  6  2  0
  6  7  1  0
  7  8  2  0
  8  9  1  0
  9 10  1  0
 10 11  1  0
 11 12  1  0
 12 13  1  0
 13 14  1  0
  2 15  1  0
 15 16  1  0
 16 17  2  0
 17 18  1  0
 18 19  1  0
  9  5  1  0
 14 10  1  0
 19 15  2  0
  1 20  1  0
  1 21  1  0
  1 22  1  0
  2 23  1  0
  3 24  1  0
  4 25  1  0
  4 26  1  0
  6 27  1  0
  7 28  1  0
 10 29  1  0
 11 30  1  0
 11 31  1  0
 12 32  1  0
 12 33  1  0
 13 34  1  0
 13 35  1  0
 14 36  1  0
 14 37  1  0
 16 38  1  0
 18 39  1  0
 19 40  1  0
M  END
>  <Energy>  (276) 
252.0812261924909

>  <compound_id>  (276) 
28388

>  <target_id>  (276) 
1

>  <reference_id>  (276) 
123

>  <inspiration_ids>  (276) 
[123, 99]

>  <energy_score>  (276) 
214.04470077353085

>  <distance_score>  (276) 
14.831863297021078

>  <path>  (276) 
/opt/xchem-fragalysis-2/maxwin/BulkDock/SCRATCH/511015/C28388-P123/C28388-P123.minimised.mol

>  <scratch_subdir>  (276) 
/opt/xchem-fragalysis-2/maxwin/BulkDock/SCRATCH/511015/C28388-P123

>  <fragmenstein_runtime>  (276) 
20.597386360168457

>  <fragmenstein_outcome>  (276) 
too moved

>  <fragmenstein_mode>  (276) 
expansion

>  <fragmenstein_error>  (276) 


$$$$
C28388-P99
     RDKit          3D

 40 42  0  0  0  0  0  0  0  0999 V2000
   -5.3029   -7.2509   10.9838 C   0  0  0  0  0  0  0  0  0  0  0  0
   -6.4379   -7.5960   10.0540 C   0  0  0  0  0  0  0  0  0  0  0  0
   -7.1991   -8.5886   11.3633 N   0  0  0  0  0  0  0  0  0  0  0  0
   -6.7532   -9.5164   12.6071 C   0  0  0  0  0  0  0  0  0  0  0  0
   -7.5713   -9.8869   14.2733 C   0  0  0  0  0  0  0  0  0  0  0  0
   -6.7086   -9.9131   15.8192 C   0  0  0  0  0  0  0  0  0  0  0  0
   -7.0044  -10.9529   16.7975 C   0  0  0  0  0  0  0  0  0  0  0  0
   -8.1820  -11.8403   16.0318 N   0  0  0  0  0  0  0  0  0  0  0  0
   -8.5148  -11.0896   14.5670 N   0  0  0  0  0  0  0  0  0  0  0  0
   -9.5552  -11.7692   13.7744 C   0  0  0  0  0  0  0  0  0  0  0  0
  -10.9705  -11.8520   14.4092 C   0  0  0  0  0  0  0  0  0  0  0  0
  -11.7257  -12.9129   13.6226 C   0  0  0  0  0  0  0  0  0  0  0  0
  -10.6714  -13.8597   13.0734 C   0  0  0  0  0  0  0  0  0  0  0  0
   -9.3149  -13.2604   13.4359 C   0  0  0  0  0  0  0  0  0  0  0  0
   -6.9981   -5.9115    9.1702 C   0  0  0  0  0  0  0  0  0  0  0  0
   -7.4879   -5.2639    7.5765 C   0  0  0  0  0  0  0  0  0  0  0  0
   -8.2645   -4.2054    7.5236 N   0  0  0  0  0  0  0  0  0  0  0  0
   -8.5441   -4.1134    8.7927 N   0  0  0  0  0  0  0  0  0  0  0  0
   -7.6794   -4.8474    9.6022 C   0  0  0  0  0  0  0  0  0  0  0  0
   -4.7560   -6.4555   10.5252 H   0  0  0  0  0  0  0  0  0  0  0  0
   -5.6079   -6.8503   11.9584 H   0  0  0  0  0  0  0  0  0  0  0  0
   -4.6898   -8.1288   11.1889 H   0  0  0  0  0  0  0  0  0  0  0  0
   -6.2974   -8.3355    9.2600 H   0  0  0  0  0  0  0  0  0  0  0  0
   -8.1417   -8.8124   11.0757 H   0  0  0  0  0  0  0  0  0  0  0  0
   -6.6745  -10.5341   12.2036 H   0  0  0  0  0  0  0  0  0  0  0  0
   -5.7413   -9.2111   12.8720 H   0  0  0  0  0  0  0  0  0  0  0  0
   -6.7710   -8.9594   16.3767 H   0  0  0  0  0  0  0  0  0  0  0  0
   -6.8559  -11.3065   17.8012 H   0  0  0  0  0  0  0  0  0  0  0  0
   -9.6328  -11.1930   12.8476 H   0  0  0  0  0  0  0  0  0  0  0  0
  -10.9818  -12.1642   15.4516 H   0  0  0  0  0  0  0  0  0  0  0  0
  -11.4849  -10.8897   14.3462 H   0  0  0  0  0  0  0  0  0  0  0  0
  -12.4858  -13.4197   14.2240 H   0  0  0  0  0  0  0  0  0  0  0  0
  -12.2549  -12.4393   12.7865 H   0  0  0  0  0  0  0  0  0  0  0  0
  -10.7705  -13.9233   11.9831 H   0  0  0  0  0  0  0  0  0  0  0  0
  -10.7812  -14.8799   13.4509 H   0  0  0  0  0  0  0  0  0  0  0  0
   -8.5969  -13.3657   12.6150 H   0  0  0  0  0  0  0  0  0  0  0  0
   -8.9313  -13.8465   14.2645 H   0  0  0  0  0  0  0  0  0  0  0  0
   -7.2151   -5.6504    6.5955 H   0  0  0  0  0  0  0  0  0  0  0  0
   -9.3053   -3.4867    9.0634 H   0  0  0  0  0  0  0  0  0  0  0  0
   -7.5287   -4.7505   10.6533 H   0  0  0  0  0  0  0  0  0  0  0  0
  1  2  1  0
  2  3  1  0
  3  4  1  0
  4  5  1  0
  5  6  2  0
  6  7  1  0
  7  8  2  0
  8  9  1  0
  9 10  1  0
 10 11  1  0
 11 12  1  0
 12 13  1  0
 13 14  1  0
  2 15  1  0
 15 16  1  0
 16 17  2  0
 17 18  1  0
 18 19  1  0
  9  5  1  0
 14 10  1  0
 19 15  2  0
  1 20  1  0
  1 21  1  0
  1 22  1  0
  2 23  1  0
  3 24  1  0
  4 25  1  0
  4 26  1  0
  6 27  1  0
  7 28  1  0
 10 29  1  0
 11 30  1  0
 11 31  1  0
 12 32  1  0
 12 33  1  0
 13 34  1  0
 13 35  1  0
 14 36  1  0
 14 37  1  0
 16 38  1  0
 18 39  1  0
 19 40  1  0
M  END
>  <Energy>  (277) 
442.59690162702969

>  <compound_id>  (277) 
28388

>  <target_id>  (277) 
1

>  <reference_id>  (277) 
99

>  <inspiration_ids>  (277) 
[123, 99]

>  <energy_score>  (277) 
404.56037620805876

>  <distance_score>  (277) 
14.360409245352963

>  <path>  (277) 
/opt/xchem-fragalysis-2/maxwin/BulkDock/SCRATCH/511015/C28388-P99/C28388-P99.minimised.mol

>  <scratch_subdir>  (277) 
/opt/xchem-fragalysis-2/maxwin/BulkDock/SCRATCH/511015/C28388-P99

>  <fragmenstein_runtime>  (277) 
28.082826614379883

>  <fragmenstein_outcome>  (277) 
too moved

>  <fragmenstein_mode>  (277) 
expansion

>  <fragmenstein_error>  (277) 


$$$$
C28389-P123
     RDKit          3D

 53 55  0  0  0  0  0  0  0  0999 V2000
   -8.3315  -13.6805   19.4918 C   0  0  0  0  0  0  0  0  0  0  0  0
   -8.7377  -15.3170   19.4433 N   0  0  0  0  0  0  0  0  0  0  0  0
  -10.0717  -14.6285   19.0643 C   0  0  0  0  0  0  0  0  0  0  0  0
  -10.4006  -12.8123   18.0328 C   0  0  0  0  0  0  0  0  0  0  0  0
  -11.1222  -12.2181   16.2490 C   0  0  0  0  0  0  0  0  0  0  0  0
  -11.8358  -10.6934   15.9913 N   0  0  0  0  0  0  0  0  0  0  0  0
  -12.1501  -11.3063   14.6471 C   0  0  0  0  0  0  0  0  0  0  0  0
  -13.0054  -10.1082   16.5427 C   0  0  0  0  0  0  0  0  0  0  0  0
  -13.8447  -10.5706   17.2657 O   0  0  0  0  0  0  0  0  0  0  0  0
  -13.1071   -8.7431   15.9772 C   0  0  0  0  0  0  0  0  0  0  0  0
  -12.0705   -7.9038   15.4763 C   0  0  0  0  0  0  0  0  0  0  0  0
  -12.5197   -6.7775   14.9126 N   0  0  0  0  0  0  0  0  0  0  0  0
  -13.8471   -6.8663   15.0795 N   0  0  0  0  0  0  0  0  0  0  0  0
  -14.2453   -8.0082   15.7131 C   0  0  0  0  0  0  0  0  0  0  0  0
   -7.7440  -16.3384   20.7438 C   0  0  0  0  0  0  0  0  0  0  0  0
   -7.0530  -18.0461   20.9277 C   0  0  0  0  0  0  0  0  0  0  0  0
   -6.3679  -18.7796   19.9229 C   0  0  0  0  0  0  0  0  0  0  0  0
   -6.2123  -20.0442   20.4256 C   0  0  0  0  0  0  0  0  0  0  0  0
   -6.7001  -20.0203   21.7034 N   0  0  0  0  0  0  0  0  0  0  0  0
   -6.7403  -21.2015   22.5392 C   0  0  0  0  0  0  0  0  0  0  0  0
   -8.1261  -21.7708   22.8137 C   0  0  0  0  0  0  0  0  0  0  0  0
   -7.8672  -22.8176   23.8902 C   0  0  0  0  0  0  0  0  0  0  0  0
   -6.6625  -22.3143   24.6875 C   0  0  0  0  0  0  0  0  0  0  0  0
   -6.0916  -21.1218   23.9177 C   0  0  0  0  0  0  0  0  0  0  0  0
   -7.0952  -18.7726   22.0814 N   0  0  0  0  0  0  0  0  0  0  0  0
   -9.0916  -13.2246   20.0718 H   0  0  0  0  0  0  0  0  0  0  0  0
   -7.3764  -13.3262   19.8672 H   0  0  0  0  0  0  0  0  0  0  0  0
   -8.1825  -13.3206   18.4756 H   0  0  0  0  0  0  0  0  0  0  0  0
   -9.7863  -15.5117   18.3897 H   0  0  0  0  0  0  0  0  0  0  0  0
  -10.8457  -15.3127   19.4706 H   0  0  0  0  0  0  0  0  0  0  0  0
   -9.4661  -12.2709   18.0935 H   0  0  0  0  0  0  0  0  0  0  0  0
  -11.0233  -12.1143   18.5337 H   0  0  0  0  0  0  0  0  0  0  0  0
  -11.6044  -12.9727   15.6500 H   0  0  0  0  0  0  0  0  0  0  0  0
  -10.2574  -12.0651   15.5463 H   0  0  0  0  0  0  0  0  0  0  0  0
  -12.9682  -12.0406   14.6829 H   0  0  0  0  0  0  0  0  0  0  0  0
  -11.2869  -11.5948   14.0322 H   0  0  0  0  0  0  0  0  0  0  0  0
  -12.5930  -10.4961   14.0491 H   0  0  0  0  0  0  0  0  0  0  0  0
  -11.0057   -8.0960   15.4892 H   0  0  0  0  0  0  0  0  0  0  0  0
  -14.4271   -6.1042   14.7470 H   0  0  0  0  0  0  0  0  0  0  0  0
  -15.2884   -8.2184   15.9024 H   0  0  0  0  0  0  0  0  0  0  0  0
   -8.0052  -16.4026   21.7561 H   0  0  0  0  0  0  0  0  0  0  0  0
   -6.7103  -16.2765   20.4634 H   0  0  0  0  0  0  0  0  0  0  0  0
   -6.1136  -18.4437   18.9351 H   0  0  0  0  0  0  0  0  0  0  0  0
   -5.8121  -20.9437   19.9813 H   0  0  0  0  0  0  0  0  0  0  0  0
   -6.1854  -21.9748   21.9859 H   0  0  0  0  0  0  0  0  0  0  0  0
   -8.8099  -21.0061   23.1879 H   0  0  0  0  0  0  0  0  0  0  0  0
   -8.5812  -22.2104   21.9202 H   0  0  0  0  0  0  0  0  0  0  0  0
   -8.7442  -22.9757   24.5254 H   0  0  0  0  0  0  0  0  0  0  0  0
   -7.6216  -23.7791   23.4237 H   0  0  0  0  0  0  0  0  0  0  0  0
   -6.9448  -22.0223   25.7043 H   0  0  0  0  0  0  0  0  0  0  0  0
   -5.9155  -23.1107   24.7801 H   0  0  0  0  0  0  0  0  0  0  0  0
   -6.3297  -20.1860   24.4237 H   0  0  0  0  0  0  0  0  0  0  0  0
   -5.0011  -21.1891   23.8695 H   0  0  0  0  0  0  0  0  0  0  0  0
  1  2  1  0
  2  3  1  0
  3  4  1  0
  4  5  1  0
  5  6  1  0
  6  7  1  0
  6  8  1  0
  8  9  2  0
  8 10  1  0
 10 11  1  0
 11 12  2  0
 12 13  1  0
 13 14  1  0
  2 15  1  0
 15 16  1  0
 16 17  1  0
 17 18  2  0
 18 19  1  0
 19 20  1  0
 20 21  1  0
 21 22  1  0
 22 23  1  0
 23 24  1  0
 19 25  1  0
 14 10  2  0
 25 16  2  0
 24 20  1  0
  1 26  1  0
  1 27  1  0
  1 28  1  0
  3 29  1  0
  3 30  1  0
  4 31  1  0
  4 32  1  0
  5 33  1  0
  5 34  1  0
  7 35  1  0
  7 36  1  0
  7 37  1  0
 11 38  1  0
 13 39  1  0
 14 40  1  0
 15 41  1  0
 15 42  1  0
 17 43  1  0
 18 44  1  0
 20 45  1  0
 21 46  1  0
 21 47  1  0
 22 48  1  0
 22 49  1  0
 23 50  1  0
 23 51  1  0
 24 52  1  0
 24 53  1  0
M  END
>  <Energy>  (278) 
596.31320708555404

>  <compound_id>  (278) 
28389

>  <target_id>  (278) 
1

>  <reference_id>  (278) 
123

>  <inspiration_ids>  (278) 
[123, 99]

>  <energy_score>  (278) 
500.19102398834366

>  <distance_score>  (278) 
13.909805526848409

>  <path>  (278) 
/opt/xchem-fragalysis-2/maxwin/BulkDock/SCRATCH/511015/C28389-P123/C28389-P123.minimised.mol

>  <scratch_subdir>  (278) 
/opt/xchem-fragalysis-2/maxwin/BulkDock/SCRATCH/511015/C28389-P123

>  <fragmenstein_runtime>  (278) 
45.57804226875305

>  <fragmenstein_outcome>  (278) 
too moved

>  <fragmenstein_mode>  (278) 
expansion

>  <fragmenstein_error>  (278) 


$$$$
C28389-P99
     RDKit          3D

 53 55  0  0  0  0  0  0  0  0999 V2000
   -9.3518  -15.5264   19.0692 C   0  0  0  0  0  0  0  0  0  0  0  0
   -8.5532  -14.7382   19.8803 N   0  0  0  0  0  0  0  0  0  0  0  0
   -8.0562  -13.4039   18.7585 C   0  0  0  0  0  0  0  0  0  0  0  0
   -8.5293  -12.3211   17.3687 C   0  0  0  0  0  0  0  0  0  0  0  0
   -8.9804  -11.9893   15.3722 C   0  0  0  0  0  0  0  0  0  0  0  0
   -8.4328  -10.3715   14.5999 N   0  0  0  0  0  0  0  0  0  0  0  0
   -8.2488  -11.2344   13.4220 C   0  0  0  0  0  0  0  0  0  0  0  0
   -7.1057   -9.4948   14.8669 C   0  0  0  0  0  0  0  0  0  0  0  0
   -6.1327   -9.7348   15.5569 O   0  0  0  0  0  0  0  0  0  0  0  0
   -6.8945   -8.2679   14.1346 C   0  0  0  0  0  0  0  0  0  0  0  0
   -6.4675   -6.9975   14.6235 C   0  0  0  0  0  0  0  0  0  0  0  0
   -5.7866   -6.2768   13.7182 N   0  0  0  0  0  0  0  0  0  0  0  0
   -5.6320   -7.1327   12.6921 N   0  0  0  0  0  0  0  0  0  0  0  0
   -6.2847   -8.3155   12.8784 C   0  0  0  0  0  0  0  0  0  0  0  0
   -7.6909  -16.3230   20.7517 C   0  0  0  0  0  0  0  0  0  0  0  0
   -6.8158  -17.9461   20.7928 C   0  0  0  0  0  0  0  0  0  0  0  0
   -5.9910  -18.5528   19.8118 C   0  0  0  0  0  0  0  0  0  0  0  0
   -5.6707  -19.7885   20.3064 C   0  0  0  0  0  0  0  0  0  0  0  0
   -6.2782  -19.8862   21.5203 N   0  0  0  0  0  0  0  0  0  0  0  0
   -6.2059  -21.0650   22.3448 C   0  0  0  0  0  0  0  0  0  0  0  0
   -7.5301  -21.7522   22.6347 C   0  0  0  0  0  0  0  0  0  0  0  0
   -7.1578  -22.7264   23.7421 C   0  0  0  0  0  0  0  0  0  0  0  0
   -6.0325  -22.0516   24.5320 C   0  0  0  0  0  0  0  0  0  0  0  0
   -5.5921  -20.8468   23.7165 C   0  0  0  0  0  0  0  0  0  0  0  0
   -6.9121  -18.7518   21.8852 N   0  0  0  0  0  0  0  0  0  0  0  0
   -9.9403  -16.2102   19.6045 H   0  0  0  0  0  0  0  0  0  0  0  0
   -8.8060  -15.9421   18.2157 H   0  0  0  0  0  0  0  0  0  0  0  0
  -10.1456  -14.8168   18.9637 H   0  0  0  0  0  0  0  0  0  0  0  0
   -7.1710  -12.9483   19.2057 H   0  0  0  0  0  0  0  0  0  0  0  0
   -7.8511  -14.0020   17.9160 H   0  0  0  0  0  0  0  0  0  0  0  0
   -9.4948  -12.0969   17.8673 H   0  0  0  0  0  0  0  0  0  0  0  0
   -7.6331  -11.7333   17.6279 H   0  0  0  0  0  0  0  0  0  0  0  0
  -10.0907  -11.8917   15.2492 H   0  0  0  0  0  0  0  0  0  0  0  0
   -8.9862  -12.8808   14.7006 H   0  0  0  0  0  0  0  0  0  0  0  0
   -8.0875  -10.4338   12.7013 H   0  0  0  0  0  0  0  0  0  0  0  0
   -9.1895  -11.6816   13.0743 H   0  0  0  0  0  0  0  0  0  0  0  0
   -7.3718  -11.8312   13.1732 H   0  0  0  0  0  0  0  0  0  0  0  0
   -6.5801   -6.6063   15.6269 H   0  0  0  0  0  0  0  0  0  0  0  0
   -5.0462   -6.8583   11.9026 H   0  0  0  0  0  0  0  0  0  0  0  0
   -6.1652   -9.1206   12.1681 H   0  0  0  0  0  0  0  0  0  0  0  0
   -7.8965  -16.5091   21.7788 H   0  0  0  0  0  0  0  0  0  0  0  0
   -6.6541  -16.2452   20.5321 H   0  0  0  0  0  0  0  0  0  0  0  0
   -5.6933  -18.1609   18.8571 H   0  0  0  0  0  0  0  0  0  0  0  0
   -5.0913  -20.5972   19.8850 H   0  0  0  0  0  0  0  0  0  0  0  0
   -5.5696  -21.7859   21.8102 H   0  0  0  0  0  0  0  0  0  0  0  0
   -7.9385  -22.2631   21.7570 H   0  0  0  0  0  0  0  0  0  0  0  0
   -8.2838  -21.0445   22.9863 H   0  0  0  0  0  0  0  0  0  0  0  0
   -6.7883  -23.6561   23.2946 H   0  0  0  0  0  0  0  0  0  0  0  0
   -8.0142  -22.9799   24.3740 H   0  0  0  0  0  0  0  0  0  0  0  0
   -5.1845  -22.7278   24.6626 H   0  0  0  0  0  0  0  0  0  0  0  0
   -6.3632  -21.7509   25.5314 H   0  0  0  0  0  0  0  0  0  0  0  0
   -4.5019  -20.7655   23.6718 H   0  0  0  0  0  0  0  0  0  0  0  0
   -5.9701  -19.9358   24.1752 H   0  0  0  0  0  0  0  0  0  0  0  0
  1  2  1  0
  2  3  1  0
  3  4  1  0
  4  5  1  0
  5  6  1  0
  6  7  1  0
  6  8  1  0
  8  9  2  0
  8 10  1  0
 10 11  1  0
 11 12  2  0
 12 13  1  0
 13 14  1  0
  2 15  1  0
 15 16  1  0
 16 17  1  0
 17 18  2  0
 18 19  1  0
 19 20  1  0
 20 21  1  0
 21 22  1  0
 22 23  1  0
 23 24  1  0
 19 25  1  0
 14 10  2  0
 25 16  2  0
 24 20  1  0
  1 26  1  0
  1 27  1  0
  1 28  1  0
  3 29  1  0
  3 30  1  0
  4 31  1  0
  4 32  1  0
  5 33  1  0
  5 34  1  0
  7 35  1  0
  7 36  1  0
  7 37  1  0
 11 38  1  0
 13 39  1  0
 14 40  1  0
 15 41  1  0
 15 42  1  0
 17 43  1  0
 18 44  1  0
 20 45  1  0
 21 46  1  0
 21 47  1  0
 22 48  1  0
 22 49  1  0
 23 50  1  0
 23 51  1  0
 24 52  1  0
 24 53  1  0
M  END
>  <Energy>  (279) 
633.1589925759539

>  <compound_id>  (279) 
28389

>  <target_id>  (279) 
1

>  <reference_id>  (279) 
99

>  <inspiration_ids>  (279) 
[123, 99]

>  <energy_score>  (279) 
537.0368094787318

>  <distance_score>  (279) 
12.632655612431577

>  <path>  (279) 
/opt/xchem-fragalysis-2/maxwin/BulkDock/SCRATCH/511015/C28389-P99/C28389-P99.minimised.mol

>  <scratch_subdir>  (279) 
/opt/xchem-fragalysis-2/maxwin/BulkDock/SCRATCH/511015/C28389-P99

>  <fragmenstein_runtime>  (279) 
58.81190466880798

>  <fragmenstein_outcome>  (279) 
too moved

>  <fragmenstein_mode>  (279) 
expansion

>  <fragmenstein_error>  (279) 


$$$$
C28390-P123
     RDKit          3D

 47 49  0  0  0  0  0  0  0  0999 V2000
   -1.3936   -3.7280   14.2476 C   0  0  0  0  0  0  0  0  0  0  0  0
   -1.5091   -5.2449   14.4158 C   0  0  0  0  0  0  0  0  0  0  0  0
   -2.9122   -5.6624   14.2082 N   0  0  0  0  0  0  0  0  0  0  0  0
   -3.3675   -6.5460   15.3018 C   0  0  0  0  0  0  0  0  0  0  0  0
   -2.5841   -7.8625   15.5873 C   0  0  0  0  0  0  0  0  0  0  0  0
   -2.8517   -8.3455   17.0146 C   0  0  0  0  0  0  0  0  0  0  0  0
   -3.5707   -7.6784   17.7041 O   0  0  0  0  0  0  0  0  0  0  0  0
   -2.1265   -9.5684   17.3072 N   0  0  0  0  0  0  0  0  0  0  0  0
   -1.9807  -10.2664   18.4814 C   0  0  0  0  0  0  0  0  0  0  0  0
   -2.4209   -9.8173   19.6984 C   0  0  0  0  0  0  0  0  0  0  0  0
   -2.2533  -10.8704   20.5765 C   0  0  0  0  0  0  0  0  0  0  0  0
   -1.6396  -11.9175   20.0248 N   0  0  0  0  0  0  0  0  0  0  0  0
   -1.3854  -11.4884   18.7555 N   0  0  0  0  0  0  0  0  0  0  0  0
   -0.3694  -12.1528   17.9511 C   0  0  0  0  0  0  0  0  0  0  0  0
    1.0116  -12.1613   18.6149 C   0  0  0  0  0  0  0  0  0  0  0  0
    1.0784  -13.4585   19.4203 C   0  0  0  0  0  0  0  0  0  0  0  0
   -0.0084  -14.3754   18.8621 C   0  0  0  0  0  0  0  0  0  0  0  0
   -0.6224  -13.6335   17.6805 C   0  0  0  0  0  0  0  0  0  0  0  0
   -0.6217   -6.0391   13.4908 C   0  0  0  0  0  0  0  0  0  0  0  0
    0.7212   -5.7668   13.1418 C   0  0  0  0  0  0  0  0  0  0  0  0
    1.2158   -6.6131   12.2359 N   0  0  0  0  0  0  0  0  0  0  0  0
    0.2004   -7.4488   12.0005 N   0  0  0  0  0  0  0  0  0  0  0  0
   -0.8511   -7.2395   12.8349 C   0  0  0  0  0  0  0  0  0  0  0  0
   -2.0575   -3.2046   14.9440 H   0  0  0  0  0  0  0  0  0  0  0  0
   -0.3743   -3.3916   14.4695 H   0  0  0  0  0  0  0  0  0  0  0  0
   -1.6215   -3.4043   13.2406 H   0  0  0  0  0  0  0  0  0  0  0  0
   -1.1874   -5.4501   15.4459 H   0  0  0  0  0  0  0  0  0  0  0  0
   -3.5071   -4.8330   14.2762 H   0  0  0  0  0  0  0  0  0  0  0  0
   -4.4103   -6.8169   15.0939 H   0  0  0  0  0  0  0  0  0  0  0  0
   -3.4001   -5.9217   16.2041 H   0  0  0  0  0  0  0  0  0  0  0  0
   -1.5034   -7.7126   15.5241 H   0  0  0  0  0  0  0  0  0  0  0  0
   -2.8818   -8.6388   14.8752 H   0  0  0  0  0  0  0  0  0  0  0  0
   -1.6833   -9.9012   16.4593 H   0  0  0  0  0  0  0  0  0  0  0  0
   -2.8414   -8.8444   19.8990 H   0  0  0  0  0  0  0  0  0  0  0  0
   -2.5548  -10.8333   21.6024 H   0  0  0  0  0  0  0  0  0  0  0  0
   -0.3117  -11.6016   17.0070 H   0  0  0  0  0  0  0  0  0  0  0  0
    1.2035  -11.2822   19.2389 H   0  0  0  0  0  0  0  0  0  0  0  0
    1.7859  -12.1887   17.8379 H   0  0  0  0  0  0  0  0  0  0  0  0
    0.8985  -13.2654   20.4839 H   0  0  0  0  0  0  0  0  0  0  0  0
    2.0699  -13.9165   19.3398 H   0  0  0  0  0  0  0  0  0  0  0  0
   -0.7643  -14.5712   19.6308 H   0  0  0  0  0  0  0  0  0  0  0  0
    0.3970  -15.3453   18.5565 H   0  0  0  0  0  0  0  0  0  0  0  0
   -1.6764  -13.8761   17.5368 H   0  0  0  0  0  0  0  0  0  0  0  0
   -0.0920  -13.9287   16.7660 H   0  0  0  0  0  0  0  0  0  0  0  0
    1.3571   -4.9621   13.4902 H   0  0  0  0  0  0  0  0  0  0  0  0
    0.3187   -8.1713   11.2986 H   0  0  0  0  0  0  0  0  0  0  0  0
   -1.6990   -7.9072   12.8079 H   0  0  0  0  0  0  0  0  0  0  0  0
  1  2  1  0
  2  3  1  0
  3  4  1  0
  4  5  1  0
  5  6  1  0
  6  7  2  0
  6  8  1  0
  8  9  1  0
  9 10  2  0
 10 11  1  0
 11 12  2  0
 12 13  1  0
 13 14  1  0
 14 15  1  0
 15 16  1  0
 16 17  1  0
 17 18  1  0
  2 19  1  0
 19 20  1  0
 20 21  2  0
 21 22  1  0
 22 23  1  0
 13  9  1  0
 18 14  1  0
 23 19  2  0
  1 24  1  0
  1 25  1  0
  1 26  1  0
  2 27  1  0
  3 28  1  0
  4 29  1  0
  4 30  1  0
  5 31  1  0
  5 32  1  0
  8 33  1  0
 10 34  1  0
 11 35  1  0
 14 36  1  0
 15 37  1  0
 15 38  1  0
 16 39  1  0
 16 40  1  0
 17 41  1  0
 17 42  1  0
 18 43  1  0
 18 44  1  0
 20 45  1  0
 22 46  1  0
 23 47  1  0
M  END
>  <Energy>  (280) 
47.139662034215895

>  <compound_id>  (280) 
28390

>  <target_id>  (280) 
1

>  <reference_id>  (280) 
123

>  <inspiration_ids>  (280) 
[123, 99]

>  <energy_score>  (280) 
-43.61852593177878

>  <distance_score>  (280) 
14.985723940065727

>  <path>  (280) 
/opt/xchem-fragalysis-2/maxwin/BulkDock/SCRATCH/511015/C28390-P123/C28390-P123.minimised.mol

>  <scratch_subdir>  (280) 
/opt/xchem-fragalysis-2/maxwin/BulkDock/SCRATCH/511015/C28390-P123

>  <fragmenstein_runtime>  (280) 
49.97491383552551

>  <fragmenstein_outcome>  (280) 
too moved

>  <fragmenstein_mode>  (280) 
expansion

>  <fragmenstein_error>  (280) 


$$$$
C28390-P99
     RDKit          3D

 47 49  0  0  0  0  0  0  0  0999 V2000
   -5.4584   -6.3996   14.5636 C   0  0  0  0  0  0  0  0  0  0  0  0
   -5.1192   -7.8932   14.4039 C   0  0  0  0  0  0  0  0  0  0  0  0
   -6.0099   -8.6736   15.2854 N   0  0  0  0  0  0  0  0  0  0  0  0
   -5.3603   -9.3270   16.4746 C   0  0  0  0  0  0  0  0  0  0  0  0
   -6.0767  -10.8045   17.0844 C   0  0  0  0  0  0  0  0  0  0  0  0
   -5.2360  -12.3263   17.5941 C   0  0  0  0  0  0  0  0  0  0  0  0
   -4.2193  -12.0497   18.2528 O   0  0  0  0  0  0  0  0  0  0  0  0
   -5.8359  -13.8955   17.0194 N   0  0  0  0  0  0  0  0  0  0  0  0
   -5.0588  -15.6457   17.1018 C   0  0  0  0  0  0  0  0  0  0  0  0
   -3.8308  -16.1022   16.3473 C   0  0  0  0  0  0  0  0  0  0  0  0
   -4.2503  -17.1432   15.4539 C   0  0  0  0  0  0  0  0  0  0  0  0
   -5.5045  -17.5077   15.7173 N   0  0  0  0  0  0  0  0  0  0  0  0
   -5.5442  -17.1607   17.0205 N   0  0  0  0  0  0  0  0  0  0  0  0
   -5.0478  -18.2724   17.9139 C   0  0  0  0  0  0  0  0  0  0  0  0
   -3.5383  -18.3633   18.2449 C   0  0  0  0  0  0  0  0  0  0  0  0
   -3.4678  -19.3954   19.3595 C   0  0  0  0  0  0  0  0  0  0  0  0
   -4.6442  -19.0173   20.2359 C   0  0  0  0  0  0  0  0  0  0  0  0
   -5.7387  -18.5928   19.2530 C   0  0  0  0  0  0  0  0  0  0  0  0
   -5.3027   -8.3881   12.9952 C   0  0  0  0  0  0  0  0  0  0  0  0
   -5.2515   -9.7120   12.5000 C   0  0  0  0  0  0  0  0  0  0  0  0
   -5.5391   -9.8180   11.2022 N   0  0  0  0  0  0  0  0  0  0  0  0
   -5.7689   -8.5526   10.8466 N   0  0  0  0  0  0  0  0  0  0  0  0
   -5.4961   -7.6693   11.8437 C   0  0  0  0  0  0  0  0  0  0  0  0
   -5.3232   -6.0873   15.6057 H   0  0  0  0  0  0  0  0  0  0  0  0
   -6.4915   -6.1768   14.2821 H   0  0  0  0  0  0  0  0  0  0  0  0
   -4.8036   -5.7729   13.9519 H   0  0  0  0  0  0  0  0  0  0  0  0
   -4.0661   -8.0431   14.6717 H   0  0  0  0  0  0  0  0  0  0  0  0
   -6.5405   -9.3452   14.7398 H   0  0  0  0  0  0  0  0  0  0  0  0
   -5.4257   -8.5317   17.2226 H   0  0  0  0  0  0  0  0  0  0  0  0
   -4.2873   -9.4762   16.3294 H   0  0  0  0  0  0  0  0  0  0  0  0
   -6.6916  -10.7504   16.2533 H   0  0  0  0  0  0  0  0  0  0  0  0
   -6.9539  -10.8681   17.7258 H   0  0  0  0  0  0  0  0  0  0  0  0
   -6.7446  -13.7872   16.5802 H   0  0  0  0  0  0  0  0  0  0  0  0
   -2.9611  -15.4763   16.1664 H   0  0  0  0  0  0  0  0  0  0  0  0
   -3.7383  -17.5301   14.5822 H   0  0  0  0  0  0  0  0  0  0  0  0
   -5.2590  -19.1667   17.3012 H   0  0  0  0  0  0  0  0  0  0  0  0
   -3.1359  -17.4216   18.6235 H   0  0  0  0  0  0  0  0  0  0  0  0
   -2.9348  -18.6776   17.3879 H   0  0  0  0  0  0  0  0  0  0  0  0
   -3.5991  -20.4058   18.9549 H   0  0  0  0  0  0  0  0  0  0  0  0
   -2.5176  -19.3611   19.9000 H   0  0  0  0  0  0  0  0  0  0  0  0
   -4.3731  -18.1793   20.8875 H   0  0  0  0  0  0  0  0  0  0  0  0
   -4.9652  -19.8430   20.8781 H   0  0  0  0  0  0  0  0  0  0  0  0
   -6.3930  -19.4595   19.1063 H   0  0  0  0  0  0  0  0  0  0  0  0
   -6.3335  -17.7867   19.6771 H   0  0  0  0  0  0  0  0  0  0  0  0
   -5.0262  -10.6101   13.0478 H   0  0  0  0  0  0  0  0  0  0  0  0
   -6.0717   -8.3626    9.8980 H   0  0  0  0  0  0  0  0  0  0  0  0
   -5.4921   -6.6096   11.6640 H   0  0  0  0  0  0  0  0  0  0  0  0
  1  2  1  0
  2  3  1  0
  3  4  1  0
  4  5  1  0
  5  6  1  0
  6  7  2  0
  6  8  1  0
  8  9  1  0
  9 10  2  0
 10 11  1  0
 11 12  2  0
 12 13  1  0
 13 14  1  0
 14 15  1  0
 15 16  1  0
 16 17  1  0
 17 18  1  0
  2 19  1  0
 19 20  1  0
 20 21  2  0
 21 22  1  0
 22 23  1  0
 13  9  1  0
 18 14  1  0
 23 19  2  0
  1 24  1  0
  1 25  1  0
  1 26  1  0
  2 27  1  0
  3 28  1  0
  4 29  1  0
  4 30  1  0
  5 31  1  0
  5 32  1  0
  8 33  1  0
 10 34  1  0
 11 35  1  0
 14 36  1  0
 15 37  1  0
 15 38  1  0
 16 39  1  0
 16 40  1  0
 17 41  1  0
 17 42  1  0
 18 43  1  0
 18 44  1  0
 20 45  1  0
 22 46  1  0
 23 47  1  0
M  END
>  <Energy>  (281) 
340.86922283533067

>  <compound_id>  (281) 
28390

>  <target_id>  (281) 
1

>  <reference_id>  (281) 
99

>  <inspiration_ids>  (281) 
[123, 99]

>  <energy_score>  (281) 
250.11103486932586

>  <distance_score>  (281) 
14.31495114895253

>  <path>  (281) 
/opt/xchem-fragalysis-2/maxwin/BulkDock/SCRATCH/511015/C28390-P99/C28390-P99.minimised.mol

>  <scratch_subdir>  (281) 
/opt/xchem-fragalysis-2/maxwin/BulkDock/SCRATCH/511015/C28390-P99

>  <fragmenstein_runtime>  (281) 
59.525737047195435

>  <fragmenstein_outcome>  (281) 
too moved

>  <fragmenstein_mode>  (281) 
expansion

>  <fragmenstein_error>  (281) 


$$$$
C28392-P123
     RDKit          3D

 47 49  0  0  0  0  0  0  0  0999 V2000
  -13.7016   -4.5646   19.1281 O   0  0  0  0  0  0  0  0  0  0  0  0
  -12.5491   -4.7651   18.8888 C   0  0  0  0  0  0  0  0  0  0  0  0
  -11.5248   -5.3573   19.6807 N   0  0  0  0  0  0  0  0  0  0  0  0
  -11.5301   -5.8167   21.0571 C   0  0  0  0  0  0  0  0  0  0  0  0
  -10.2581   -6.6396   21.3752 C   0  0  0  0  0  0  0  0  0  0  0  0
   -8.9813   -5.7523   21.1522 C   0  0  0  0  0  0  0  0  0  0  0  0
   -8.7826   -5.4116   19.7626 O   0  0  0  0  0  0  0  0  0  0  0  0
  -10.3384   -7.4642   22.6289 N   0  0  0  0  0  0  0  0  0  0  0  0
  -11.4636   -8.1458   23.2492 C   0  0  0  0  0  0  0  0  0  0  0  0
  -12.6237   -8.1539   22.9601 O   0  0  0  0  0  0  0  0  0  0  0  0
  -11.0860   -9.0861   24.3949 C   0  0  0  0  0  0  0  0  0  0  0  0
  -11.9158  -10.1728   24.8602 C   0  0  0  0  0  0  0  0  0  0  0  0
  -11.2332  -10.7889   25.8799 C   0  0  0  0  0  0  0  0  0  0  0  0
  -10.0856  -10.0652   26.0259 N   0  0  0  0  0  0  0  0  0  0  0  0
   -9.1640  -10.1733   27.1491 C   0  0  0  0  0  0  0  0  0  0  0  0
   -7.6818  -10.1369   26.7594 C   0  0  0  0  0  0  0  0  0  0  0  0
   -7.1941   -8.7602   27.1857 C   0  0  0  0  0  0  0  0  0  0  0  0
   -7.9649   -8.5075   28.4689 C   0  0  0  0  0  0  0  0  0  0  0  0
   -9.3626   -9.0309   28.1619 C   0  0  0  0  0  0  0  0  0  0  0  0
   -9.9119   -9.1089   25.0641 N   0  0  0  0  0  0  0  0  0  0  0  0
  -12.0579   -4.3825   17.5495 C   0  0  0  0  0  0  0  0  0  0  0  0
  -10.8768   -4.6963   16.8251 C   0  0  0  0  0  0  0  0  0  0  0  0
  -10.8379   -4.1504   15.6073 N   0  0  0  0  0  0  0  0  0  0  0  0
  -11.9716   -3.4372   15.5638 N   0  0  0  0  0  0  0  0  0  0  0  0
  -12.7510   -3.5787   16.6623 C   0  0  0  0  0  0  0  0  0  0  0  0
  -10.6410   -5.2874   19.1844 H   0  0  0  0  0  0  0  0  0  0  0  0
  -12.4436   -6.4027   21.1870 H   0  0  0  0  0  0  0  0  0  0  0  0
  -11.6078   -4.9403   21.7092 H   0  0  0  0  0  0  0  0  0  0  0  0
  -10.2113   -7.3979   20.5867 H   0  0  0  0  0  0  0  0  0  0  0  0
   -9.0588   -4.8254   21.7302 H   0  0  0  0  0  0  0  0  0  0  0  0
   -8.0992   -6.2929   21.4997 H   0  0  0  0  0  0  0  0  0  0  0  0
   -7.9610   -4.8863   19.7196 H   0  0  0  0  0  0  0  0  0  0  0  0
   -9.4801   -7.7518   23.0931 H   0  0  0  0  0  0  0  0  0  0  0  0
  -12.8951  -10.4289   24.4759 H   0  0  0  0  0  0  0  0  0  0  0  0
  -11.4906  -11.6134   26.5293 H   0  0  0  0  0  0  0  0  0  0  0  0
   -9.3770  -11.1380   27.6273 H   0  0  0  0  0  0  0  0  0  0  0  0
   -7.5028  -10.3293   25.7013 H   0  0  0  0  0  0  0  0  0  0  0  0
   -7.1383  -10.9015   27.3289 H   0  0  0  0  0  0  0  0  0  0  0  0
   -7.4536   -8.0105   26.4293 H   0  0  0  0  0  0  0  0  0  0  0  0
   -6.1115   -8.7330   27.3384 H   0  0  0  0  0  0  0  0  0  0  0  0
   -7.9706   -7.4510   28.7518 H   0  0  0  0  0  0  0  0  0  0  0  0
   -7.5231   -9.0788   29.2941 H   0  0  0  0  0  0  0  0  0  0  0  0
   -9.9781   -8.2220   27.7497 H   0  0  0  0  0  0  0  0  0  0  0  0
   -9.8602   -9.3828   29.0719 H   0  0  0  0  0  0  0  0  0  0  0  0
  -10.0413   -5.3061   17.1344 H   0  0  0  0  0  0  0  0  0  0  0  0
  -12.1513   -2.8514   14.7586 H   0  0  0  0  0  0  0  0  0  0  0  0
  -13.7107   -3.0884   16.7507 H   0  0  0  0  0  0  0  0  0  0  0  0
  1  2  2  0
  2  3  1  0
  3  4  1  0
  4  5  1  0
  5  6  1  0
  6  7  1  0
  5  8  1  0
  8  9  1  0
  9 10  2  0
  9 11  1  0
 11 12  1  0
 12 13  2  0
 13 14  1  0
 14 15  1  0
 15 16  1  0
 16 17  1  0
 17 18  1  0
 18 19  1  0
 14 20  1  0
  2 21  1  0
 21 22  1  0
 22 23  2  0
 23 24  1  0
 24 25  1  0
 20 11  2  0
 25 21  2  0
 19 15  1  0
  3 26  1  0
  4 27  1  0
  4 28  1  0
  5 29  1  0
  6 30  1  0
  6 31  1  0
  7 32  1  0
  8 33  1  0
 12 34  1  0
 13 35  1  0
 15 36  1  0
 16 37  1  0
 16 38  1  0
 17 39  1  0
 17 40  1  0
 18 41  1  0
 18 42  1  0
 19 43  1  0
 19 44  1  0
 22 45  1  0
 24 46  1  0
 25 47  1  0
M  END
>  <Energy>  (282) 
68.658504850957669

>  <compound_id>  (282) 
28392

>  <target_id>  (282) 
1

>  <reference_id>  (282) 
123

>  <inspiration_ids>  (282) 
[123, 99]

>  <energy_score>  (282) 
-28.851479855971093

>  <distance_score>  (282) 
14.217757038126422

>  <path>  (282) 
/opt/xchem-fragalysis-2/maxwin/BulkDock/SCRATCH/511015/C28392-P123/C28392-P123.minimised.mol

>  <scratch_subdir>  (282) 
/opt/xchem-fragalysis-2/maxwin/BulkDock/SCRATCH/511015/C28392-P123

>  <fragmenstein_runtime>  (282) 
54.927826166152954

>  <fragmenstein_outcome>  (282) 
too moved

>  <fragmenstein_mode>  (282) 
expansion

>  <fragmenstein_error>  (282) 


$$$$
C28392-P99
     RDKit          3D

 47 49  0  0  0  0  0  0  0  0999 V2000
   -7.0062  -13.8374   16.5708 O   0  0  0  0  0  0  0  0  0  0  0  0
   -7.4092  -13.2072   17.5038 C   0  0  0  0  0  0  0  0  0  0  0  0
   -8.1959  -13.6952   18.6796 N   0  0  0  0  0  0  0  0  0  0  0  0
   -8.7590  -15.6111   19.2680 C   0  0  0  0  0  0  0  0  0  0  0  0
   -8.0797  -16.5084   21.1401 C   0  0  0  0  0  0  0  0  0  0  0  0
   -8.4823  -14.5666   20.3722 C   0  0  0  0  0  0  0  0  0  0  0  0
   -7.2452  -13.4441   20.2415 O   0  0  0  0  0  0  0  0  0  0  0  0
   -8.3013  -18.3048   22.3869 N   0  0  0  0  0  0  0  0  0  0  0  0
   -9.0267  -18.6601   24.2913 C   0  0  0  0  0  0  0  0  0  0  0  0
   -9.4078  -17.6281   24.7774 O   0  0  0  0  0  0  0  0  0  0  0  0
   -9.4243  -20.2674   25.6658 C   0  0  0  0  0  0  0  0  0  0  0  0
  -10.7529  -21.4254   25.8606 C   0  0  0  0  0  0  0  0  0  0  0  0
  -11.1641  -22.2962   27.1853 C   0  0  0  0  0  0  0  0  0  0  0  0
  -10.4343  -22.0722   28.7218 N   0  0  0  0  0  0  0  0  0  0  0  0
  -11.0273  -22.8686   30.6010 C   0  0  0  0  0  0  0  0  0  0  0  0
  -11.2718  -22.8807   32.7171 C   0  0  0  0  0  0  0  0  0  0  0  0
  -11.8774  -23.0390   35.1162 C   0  0  0  0  0  0  0  0  0  0  0  0
  -12.3446  -24.9515   33.9674 C   0  0  0  0  0  0  0  0  0  0  0  0
  -10.9539  -24.3221   32.2544 C   0  0  0  0  0  0  0  0  0  0  0  0
   -9.3074  -21.0930   27.3639 N   0  0  0  0  0  0  0  0  0  0  0  0
   -6.8177  -11.4255   17.5354 C   0  0  0  0  0  0  0  0  0  0  0  0
   -5.3013  -11.5098   17.6425 C   0  0  0  0  0  0  0  0  0  0  0  0
   -4.4283  -10.5753   17.0687 N   0  0  0  0  0  0  0  0  0  0  0  0
   -5.2133   -9.7205   16.4982 N   0  0  0  0  0  0  0  0  0  0  0  0
   -6.4629  -10.2493   16.5399 C   0  0  0  0  0  0  0  0  0  0  0  0
   -8.4622  -12.8719   19.2692 H   0  0  0  0  0  0  0  0  0  0  0  0
   -8.3660  -16.1592   18.3807 H   0  0  0  0  0  0  0  0  0  0  0  0
   -9.8300  -15.6944   19.1805 H   0  0  0  0  0  0  0  0  0  0  0  0
   -7.0688  -16.8043   20.7861 H   0  0  0  0  0  0  0  0  0  0  0  0
   -9.4702  -14.0273   19.7348 H   0  0  0  0  0  0  0  0  0  0  0  0
   -9.0313  -13.7063   21.0489 H   0  0  0  0  0  0  0  0  0  0  0  0
   -6.9670  -13.1847   19.3712 H   0  0  0  0  0  0  0  0  0  0  0  0
   -7.9089  -19.1738   22.0363 H   0  0  0  0  0  0  0  0  0  0  0  0
  -11.4188  -21.5082   25.0090 H   0  0  0  0  0  0  0  0  0  0  0  0
  -11.9738  -22.9914   27.3043 H   0  0  0  0  0  0  0  0  0  0  0  0
  -11.9884  -22.8886   30.0713 H   0  0  0  0  0  0  0  0  0  0  0  0
  -10.1187  -22.6455   32.3620 H   0  0  0  0  0  0  0  0  0  0  0  0
  -12.1168  -21.9944   32.1469 H   0  0  0  0  0  0  0  0  0  0  0  0
  -12.8838  -23.0331   35.7160 H   0  0  0  0  0  0  0  0  0  0  0  0
  -11.1514  -23.2577   35.9491 H   0  0  0  0  0  0  0  0  0  0  0  0
  -12.5449  -25.2673   35.2043 H   0  0  0  0  0  0  0  0  0  0  0  0
  -13.4247  -25.2427   33.7770 H   0  0  0  0  0  0  0  0  0  0  0  0
   -9.8417  -24.4609   32.4792 H   0  0  0  0  0  0  0  0  0  0  0  0
  -10.8999  -25.1723   31.7835 H   0  0  0  0  0  0  0  0  0  0  0  0
   -4.8105  -12.1969   18.3080 H   0  0  0  0  0  0  0  0  0  0  0  0
   -4.8252   -8.9652   15.9402 H   0  0  0  0  0  0  0  0  0  0  0  0
   -6.8537   -9.8342   15.6144 H   0  0  0  0  0  0  0  0  0  0  0  0
  1  2  2  0
  2  3  1  0
  3  4  1  0
  4  5  1  0
  5  6  1  0
  6  7  1  0
  5  8  1  0
  8  9  1  0
  9 10  2  0
  9 11  1  0
 11 12  1  0
 12 13  2  0
 13 14  1  0
 14 15  1  0
 15 16  1  0
 16 17  1  0
 17 18  1  0
 18 19  1  0
 14 20  1  0
  2 21  1  0
 21 22  1  0
 22 23  2  0
 23 24  1  0
 24 25  1  0
 20 11  2  0
 25 21  2  0
 19 15  1  0
  3 26  1  0
  4 27  1  0
  4 28  1  0
  5 29  1  0
  6 30  1  0
  6 31  1  0
  7 32  1  0
  8 33  1  0
 12 34  1  0
 13 35  1  0
 15 36  1  0
 16 37  1  0
 16 38  1  0
 17 39  1  0
 17 40  1  0
 18 41  1  0
 18 42  1  0
 19 43  1  0
 19 44  1  0
 22 45  1  0
 24 46  1  0
 25 47  1  0
M  END
>  <Energy>  (283) 
3590.0871048487102

>  <compound_id>  (283) 
28392

>  <target_id>  (283) 
1

>  <reference_id>  (283) 
99

>  <inspiration_ids>  (283) 
[123, 99]

>  <energy_score>  (283) 
3492.577120141721

>  <distance_score>  (283) 
13.713402431253831

>  <path>  (283) 
/opt/xchem-fragalysis-2/maxwin/BulkDock/SCRATCH/511015/C28392-P99/C28392-P99.minimised.mol

>  <scratch_subdir>  (283) 
/opt/xchem-fragalysis-2/maxwin/BulkDock/SCRATCH/511015/C28392-P99

>  <fragmenstein_runtime>  (283) 
37.58544397354126

>  <fragmenstein_outcome>  (283) 
too moved

>  <fragmenstein_mode>  (283) 
expansion

>  <fragmenstein_error>  (283) 


$$$$
C28393-P123
     RDKit          3D

 50 52  0  0  0  0  0  0  0  0999 V2000
   -6.9194  -12.7083   19.6486 C   0  0  0  0  0  0  0  0  0  0  0  0
   -8.1839  -13.9161   20.2380 N   0  0  0  0  0  0  0  0  0  0  0  0
   -9.0025  -13.3141   19.1013 C   0  0  0  0  0  0  0  0  0  0  0  0
   -9.2453  -11.7600   18.2463 C   0  0  0  0  0  0  0  0  0  0  0  0
   -8.4746  -11.3027   16.9120 N   0  0  0  0  0  0  0  0  0  0  0  0
   -8.1604  -10.1080   17.7556 C   0  0  0  0  0  0  0  0  0  0  0  0
   -8.9830  -10.8817   15.6351 C   0  0  0  0  0  0  0  0  0  0  0  0
  -10.1104  -10.6799   15.2722 O   0  0  0  0  0  0  0  0  0  0  0  0
   -7.9278  -10.5612   14.6680 C   0  0  0  0  0  0  0  0  0  0  0  0
   -7.4168   -9.2727   14.3614 C   0  0  0  0  0  0  0  0  0  0  0  0
   -6.5619   -9.2687   13.3355 N   0  0  0  0  0  0  0  0  0  0  0  0
   -6.5580  -10.5525   12.9417 N   0  0  0  0  0  0  0  0  0  0  0  0
   -7.3499  -11.3642   13.7080 C   0  0  0  0  0  0  0  0  0  0  0  0
   -7.9502  -15.8481   21.0531 C   0  0  0  0  0  0  0  0  0  0  0  0
   -7.9813  -16.7557   23.0049 C   0  0  0  0  0  0  0  0  0  0  0  0
   -9.5593  -16.5683   24.3392 C   0  0  0  0  0  0  0  0  0  0  0  0
   -9.8982  -16.1600   25.8102 C   0  0  0  0  0  0  0  0  0  0  0  0
   -8.8601  -16.7752   26.1929 N   0  0  0  0  0  0  0  0  0  0  0  0
   -9.5297  -18.3200   26.9728 C   0  0  0  0  0  0  0  0  0  0  0  0
   -9.7931  -20.5500   26.9796 C   0  0  0  0  0  0  0  0  0  0  0  0
  -11.0812  -21.0107   26.1285 C   0  0  0  0  0  0  0  0  0  0  0  0
  -11.6032  -19.7745   25.3369 C   0  0  0  0  0  0  0  0  0  0  0  0
  -11.2417  -18.2056   26.0137 C   0  0  0  0  0  0  0  0  0  0  0  0
   -7.9512  -16.0937   24.7860 N   0  0  0  0  0  0  0  0  0  0  0  0
   -6.5834  -11.8988   20.3427 H   0  0  0  0  0  0  0  0  0  0  0  0
   -5.9585  -12.8887   19.1816 H   0  0  0  0  0  0  0  0  0  0  0  0
   -7.2660  -12.1781   18.7792 H   0  0  0  0  0  0  0  0  0  0  0  0
  -10.0079  -13.6538   19.2354 H   0  0  0  0  0  0  0  0  0  0  0  0
   -8.3317  -13.6999   18.3461 H   0  0  0  0  0  0  0  0  0  0  0  0
  -10.2123  -11.9573   17.7760 H   0  0  0  0  0  0  0  0  0  0  0  0
   -9.5798  -10.9567   18.8692 H   0  0  0  0  0  0  0  0  0  0  0  0
   -9.0121   -9.4151   17.8497 H   0  0  0  0  0  0  0  0  0  0  0  0
   -7.6002  -10.2658   18.6794 H   0  0  0  0  0  0  0  0  0  0  0  0
   -7.4411   -9.5204   17.1676 H   0  0  0  0  0  0  0  0  0  0  0  0
   -7.6502   -8.3382   14.8534 H   0  0  0  0  0  0  0  0  0  0  0  0
   -5.9989  -10.8054   12.1337 H   0  0  0  0  0  0  0  0  0  0  0  0
   -7.4625  -12.4149   13.4839 H   0  0  0  0  0  0  0  0  0  0  0  0
   -7.0962  -16.4312   20.6201 H   0  0  0  0  0  0  0  0  0  0  0  0
   -8.7563  -16.1262   20.4048 H   0  0  0  0  0  0  0  0  0  0  0  0
  -10.5127  -16.9738   23.9747 H   0  0  0  0  0  0  0  0  0  0  0  0
  -10.8292  -15.9948   26.3404 H   0  0  0  0  0  0  0  0  0  0  0  0
   -9.4615  -17.8500   27.9884 H   0  0  0  0  0  0  0  0  0  0  0  0
  -10.0505  -21.0999   27.9601 H   0  0  0  0  0  0  0  0  0  0  0  0
   -8.9124  -21.2269   27.1169 H   0  0  0  0  0  0  0  0  0  0  0  0
  -10.8527  -21.8482   25.4613 H   0  0  0  0  0  0  0  0  0  0  0  0
  -11.7887  -21.4279   26.8465 H   0  0  0  0  0  0  0  0  0  0  0  0
  -12.6161  -19.7782   24.9418 H   0  0  0  0  0  0  0  0  0  0  0  0
  -11.0315  -19.9057   24.4122 H   0  0  0  0  0  0  0  0  0  0  0  0
  -11.4661  -17.5278   25.2271 H   0  0  0  0  0  0  0  0  0  0  0  0
  -11.8887  -17.6864   26.7548 H   0  0  0  0  0  0  0  0  0  0  0  0
  1  2  1  0
  2  3  1  0
  3  4  1  0
  4  5  1  0
  5  6  1  0
  5  7  1  0
  7  8  2  0
  7  9  1  0
  9 10  1  0
 10 11  2  0
 11 12  1  0
 12 13  1  0
  2 14  1  0
 14 15  1  0
 15 16  1  0
 16 17  2  0
 17 18  1  0
 18 19  1  0
 19 20  1  0
 20 21  1  0
 21 22  1  0
 22 23  1  0
 18 24  1  0
 13  9  2  0
 24 15  2  0
 23 19  1  0
  1 25  1  0
  1 26  1  0
  1 27  1  0
  3 28  1  0
  3 29  1  0
  4 30  1  0
  4 31  1  0
  6 32  1  0
  6 33  1  0
  6 34  1  0
 10 35  1  0
 12 36  1  0
 13 37  1  0
 14 38  1  0
 14 39  1  0
 16 40  1  0
 17 41  1  0
 19 42  1  0
 20 43  1  0
 20 44  1  0
 21 45  1  0
 21 46  1  0
 22 47  1  0
 22 48  1  0
 23 49  1  0
 23 50  1  0
M  END
>  <Energy>  (284) 
1461.7220986808904

>  <compound_id>  (284) 
28393

>  <target_id>  (284) 
1

>  <reference_id>  (284) 
123

>  <inspiration_ids>  (284) 
[123, 99]

>  <energy_score>  (284) 
1364.7776838908849

>  <distance_score>  (284) 
12.68365587677011

>  <path>  (284) 
/opt/xchem-fragalysis-2/maxwin/BulkDock/SCRATCH/511015/C28393-P123/C28393-P123.minimised.mol

>  <scratch_subdir>  (284) 
/opt/xchem-fragalysis-2/maxwin/BulkDock/SCRATCH/511015/C28393-P123

>  <fragmenstein_runtime>  (284) 
52.597050189971924

>  <fragmenstein_outcome>  (284) 
too moved

>  <fragmenstein_mode>  (284) 
expansion

>  <fragmenstein_error>  (284) 


$$$$
C28393-P99
     RDKit          3D

 50 52  0  0  0  0  0  0  0  0999 V2000
   -7.4061  -19.7706   20.1003 C   0  0  0  0  0  0  0  0  0  0  0  0
   -7.4300  -19.1678   21.3597 N   0  0  0  0  0  0  0  0  0  0  0  0
   -6.2006  -18.1313   20.8895 C   0  0  0  0  0  0  0  0  0  0  0  0
   -5.4053  -18.3108   19.2540 C   0  0  0  0  0  0  0  0  0  0  0  0
   -4.3054  -17.7451   18.1848 N   0  0  0  0  0  0  0  0  0  0  0  0
   -4.5197  -19.2271   17.5544 C   0  0  0  0  0  0  0  0  0  0  0  0
   -4.4356  -16.6446   17.0761 C   0  0  0  0  0  0  0  0  0  0  0  0
   -5.4065  -16.0257   16.7011 O   0  0  0  0  0  0  0  0  0  0  0  0
   -3.2434  -16.3047   16.2048 C   0  0  0  0  0  0  0  0  0  0  0  0
   -2.0871  -16.9307   15.7201 C   0  0  0  0  0  0  0  0  0  0  0  0
   -1.4387  -16.2166   14.7839 N   0  0  0  0  0  0  0  0  0  0  0  0
   -2.1841  -15.1146   14.6375 N   0  0  0  0  0  0  0  0  0  0  0  0
   -3.2613  -15.1127   15.4560 C   0  0  0  0  0  0  0  0  0  0  0  0
   -7.9999  -20.6646   22.4102 C   0  0  0  0  0  0  0  0  0  0  0  0
   -9.2977  -22.1061   23.1905 C   0  0  0  0  0  0  0  0  0  0  0  0
   -8.8053  -23.5335   23.6528 C   0  0  0  0  0  0  0  0  0  0  0  0
   -9.1134  -24.0019   24.9921 C   0  0  0  0  0  0  0  0  0  0  0  0
   -9.7030  -23.0562   25.9530 N   0  0  0  0  0  0  0  0  0  0  0  0
   -9.1859  -22.8779   27.7895 C   0  0  0  0  0  0  0  0  0  0  0  0
   -7.4749  -22.8052   28.9801 C   0  0  0  0  0  0  0  0  0  0  0  0
   -7.6397  -21.7589   31.1872 C   0  0  0  0  0  0  0  0  0  0  0  0
   -9.8639  -21.6536   30.8736 C   0  0  0  0  0  0  0  0  0  0  0  0
  -10.4023  -22.2584   29.0727 C   0  0  0  0  0  0  0  0  0  0  0  0
  -10.3046  -22.0551   24.5708 N   0  0  0  0  0  0  0  0  0  0  0  0
   -6.3664  -20.0552   20.1201 H   0  0  0  0  0  0  0  0  0  0  0  0
   -7.2816  -19.3385   19.1381 H   0  0  0  0  0  0  0  0  0  0  0  0
   -8.2046  -20.4978   19.9190 H   0  0  0  0  0  0  0  0  0  0  0  0
   -5.5160  -18.0696   21.6896 H   0  0  0  0  0  0  0  0  0  0  0  0
   -6.7189  -17.1895   20.7889 H   0  0  0  0  0  0  0  0  0  0  0  0
   -6.2727  -18.1526   18.6312 H   0  0  0  0  0  0  0  0  0  0  0  0
   -4.9532  -19.2593   19.5374 H   0  0  0  0  0  0  0  0  0  0  0  0
   -3.9906  -19.9819   18.1613 H   0  0  0  0  0  0  0  0  0  0  0  0
   -3.9171  -19.2661   16.6420 H   0  0  0  0  0  0  0  0  0  0  0  0
   -5.5284  -19.6432   17.4095 H   0  0  0  0  0  0  0  0  0  0  0  0
   -1.6956  -17.9072   15.9724 H   0  0  0  0  0  0  0  0  0  0  0  0
   -1.8975  -14.4169   13.9582 H   0  0  0  0  0  0  0  0  0  0  0  0
   -3.9844  -14.3081   15.4358 H   0  0  0  0  0  0  0  0  0  0  0  0
   -7.0665  -21.0087   22.7972 H   0  0  0  0  0  0  0  0  0  0  0  0
   -8.1535  -19.7259   22.9993 H   0  0  0  0  0  0  0  0  0  0  0  0
   -8.1430  -24.1033   23.0140 H   0  0  0  0  0  0  0  0  0  0  0  0
   -8.9160  -24.9341   25.4474 H   0  0  0  0  0  0  0  0  0  0  0  0
   -9.3844  -23.9656   27.8464 H   0  0  0  0  0  0  0  0  0  0  0  0
   -6.7441  -23.5828   28.8724 H   0  0  0  0  0  0  0  0  0  0  0  0
   -7.2583  -22.2807   27.9281 H   0  0  0  0  0  0  0  0  0  0  0  0
   -6.8689  -21.5021   32.2736 H   0  0  0  0  0  0  0  0  0  0  0  0
   -6.8039  -20.5694   31.1832 H   0  0  0  0  0  0  0  0  0  0  0  0
  -10.5315  -22.3945   31.4303 H   0  0  0  0  0  0  0  0  0  0  0  0
  -10.4412  -20.7656   31.0402 H   0  0  0  0  0  0  0  0  0  0  0  0
  -11.1392  -21.5905   28.6578 H   0  0  0  0  0  0  0  0  0  0  0  0
  -11.0338  -23.1097   29.2402 H   0  0  0  0  0  0  0  0  0  0  0  0
  1  2  1  0
  2  3  1  0
  3  4  1  0
  4  5  1  0
  5  6  1  0
  5  7  1  0
  7  8  2  0
  7  9  1  0
  9 10  1  0
 10 11  2  0
 11 12  1  0
 12 13  1  0
  2 14  1  0
 14 15  1  0
 15 16  1  0
 16 17  2  0
 17 18  1  0
 18 19  1  0
 19 20  1  0
 20 21  1  0
 21 22  1  0
 22 23  1  0
 18 24  1  0
 13  9  2  0
 24 15  2  0
 23 19  1  0
  1 25  1  0
  1 26  1  0
  1 27  1  0
  3 28  1  0
  3 29  1  0
  4 30  1  0
  4 31  1  0
  6 32  1  0
  6 33  1  0
  6 34  1  0
 10 35  1  0
 12 36  1  0
 13 37  1  0
 14 38  1  0
 14 39  1  0
 16 40  1  0
 17 41  1  0
 19 42  1  0
 20 43  1  0
 20 44  1  0
 21 45  1  0
 21 46  1  0
 22 47  1  0
 22 48  1  0
 23 49  1  0
 23 50  1  0
M  END
>  <Energy>  (285) 
1597.0525044233593

>  <compound_id>  (285) 
28393

>  <target_id>  (285) 
1

>  <reference_id>  (285) 
99

>  <inspiration_ids>  (285) 
[123, 99]

>  <energy_score>  (285) 
1500.1080896333438

>  <distance_score>  (285) 
16.14194608384815

>  <path>  (285) 
/opt/xchem-fragalysis-2/maxwin/BulkDock/SCRATCH/511015/C28393-P99/C28393-P99.minimised.mol

>  <scratch_subdir>  (285) 
/opt/xchem-fragalysis-2/maxwin/BulkDock/SCRATCH/511015/C28393-P99

>  <fragmenstein_runtime>  (285) 
47.821343183517456

>  <fragmenstein_outcome>  (285) 
too moved

>  <fragmenstein_mode>  (285) 
expansion

>  <fragmenstein_error>  (285) 


$$$$
C28395-P123
     RDKit          3D

 49 51  0  0  0  0  0  0  0  0999 V2000
   -7.2317  -11.6390   17.8410 C   0  0  0  0  0  0  0  0  0  0  0  0
   -8.4305  -12.3424   17.0911 C   0  0  0  0  0  0  0  0  0  0  0  0
   -9.0082  -12.0409   15.1952 C   0  0  0  0  0  0  0  0  0  0  0  0
   -8.8748  -10.9856   14.0092 C   0  0  0  0  0  0  0  0  0  0  0  0
   -7.9300   -9.9115   13.9130 N   0  0  0  0  0  0  0  0  0  0  0  0
   -6.7213   -9.7858   13.1501 C   0  0  0  0  0  0  0  0  0  0  0  0
   -6.1495  -10.5744   12.4593 O   0  0  0  0  0  0  0  0  0  0  0  0
   -6.1484   -8.4591   13.3715 C   0  0  0  0  0  0  0  0  0  0  0  0
   -5.5766   -7.5787   12.4337 C   0  0  0  0  0  0  0  0  0  0  0  0
   -5.3546   -6.3626   12.9537 N   0  0  0  0  0  0  0  0  0  0  0  0
   -5.6393   -6.5047   14.2465 N   0  0  0  0  0  0  0  0  0  0  0  0
   -6.0672   -7.7553   14.5603 C   0  0  0  0  0  0  0  0  0  0  0  0
   -9.6587  -12.6097   18.4072 N   0  0  0  0  0  0  0  0  0  0  0  0
   -9.5721  -13.4437   19.7724 C   0  0  0  0  0  0  0  0  0  0  0  0
   -8.6101  -13.9666   20.1740 O   0  0  0  0  0  0  0  0  0  0  0  0
  -11.1237  -13.5761   21.0963 C   0  0  0  0  0  0  0  0  0  0  0  0
  -12.2822  -15.2134   20.7724 C   0  0  0  0  0  0  0  0  0  0  0  0
  -12.9843  -15.8803   21.7168 C   0  0  0  0  0  0  0  0  0  0  0  0
  -12.2067  -15.6192   22.8158 N   0  0  0  0  0  0  0  0  0  0  0  0
  -12.4543  -16.5460   23.9033 C   0  0  0  0  0  0  0  0  0  0  0  0
  -11.6046  -17.5506   24.6844 C   0  0  0  0  0  0  0  0  0  0  0  0
  -12.5148  -18.7927   24.5182 C   0  0  0  0  0  0  0  0  0  0  0  0
  -13.9805  -18.2152   24.5620 C   0  0  0  0  0  0  0  0  0  0  0  0
  -13.8288  -16.6690   24.5601 C   0  0  0  0  0  0  0  0  0  0  0  0
  -11.0866  -14.3832   22.6100 N   0  0  0  0  0  0  0  0  0  0  0  0
   -6.4261  -12.3136   18.1326 H   0  0  0  0  0  0  0  0  0  0  0  0
   -6.7474  -10.8458   17.2617 H   0  0  0  0  0  0  0  0  0  0  0  0
   -7.5904  -11.3201   18.8008 H   0  0  0  0  0  0  0  0  0  0  0  0
   -7.9309  -13.3131   17.0812 H   0  0  0  0  0  0  0  0  0  0  0  0
  -10.1351  -12.0784   15.1988 H   0  0  0  0  0  0  0  0  0  0  0  0
   -8.9619  -13.0139   14.6580 H   0  0  0  0  0  0  0  0  0  0  0  0
   -8.7456  -11.5760   13.0933 H   0  0  0  0  0  0  0  0  0  0  0  0
   -9.8504  -10.4927   13.9018 H   0  0  0  0  0  0  0  0  0  0  0  0
   -8.1604   -9.0227   14.3064 H   0  0  0  0  0  0  0  0  0  0  0  0
   -5.3844   -7.7492   11.3802 H   0  0  0  0  0  0  0  0  0  0  0  0
   -5.5083   -5.7087   14.8633 H   0  0  0  0  0  0  0  0  0  0  0  0
   -6.2916   -8.0259   15.5809 H   0  0  0  0  0  0  0  0  0  0  0  0
  -10.6246  -12.3339   18.2541 H   0  0  0  0  0  0  0  0  0  0  0  0
  -12.4997  -15.6024   19.7704 H   0  0  0  0  0  0  0  0  0  0  0  0
  -13.7565  -16.6384   21.6467 H   0  0  0  0  0  0  0  0  0  0  0  0
  -12.6534  -17.2941   23.1431 H   0  0  0  0  0  0  0  0  0  0  0  0
  -10.6076  -17.7654   24.3166 H   0  0  0  0  0  0  0  0  0  0  0  0
  -11.5220  -17.2536   25.7354 H   0  0  0  0  0  0  0  0  0  0  0  0
  -12.2227  -19.5985   25.1821 H   0  0  0  0  0  0  0  0  0  0  0  0
  -12.3674  -19.2556   23.5321 H   0  0  0  0  0  0  0  0  0  0  0  0
  -14.5036  -18.5371   23.6514 H   0  0  0  0  0  0  0  0  0  0  0  0
  -14.6158  -18.5273   25.3849 H   0  0  0  0  0  0  0  0  0  0  0  0
  -14.6429  -16.1879   24.0103 H   0  0  0  0  0  0  0  0  0  0  0  0
  -13.8106  -16.2726   25.5810 H   0  0  0  0  0  0  0  0  0  0  0  0
  1  2  1  0
  2  3  1  0
  3  4  1  0
  4  5  1  0
  5  6  1  0
  6  7  2  0
  6  8  1  0
  8  9  1  0
  9 10  2  0
 10 11  1  0
 11 12  1  0
  2 13  1  0
 13 14  1  0
 14 15  2  0
 14 16  1  0
 16 17  1  0
 17 18  2  0
 18 19  1  0
 19 20  1  0
 20 21  1  0
 21 22  1  0
 22 23  1  0
 23 24  1  0
 19 25  1  0
 12  8  2  0
 25 16  2  0
 24 20  1  0
  1 26  1  0
  1 27  1  0
  1 28  1  0
  2 29  1  0
  3 30  1  0
  3 31  1  0
  4 32  1  0
  4 33  1  0
  5 34  1  0
  9 35  1  0
 11 36  1  0
 12 37  1  0
 13 38  1  0
 17 39  1  0
 18 40  1  0
 20 41  1  0
 21 42  1  0
 21 43  1  0
 22 44  1  0
 22 45  1  0
 23 46  1  0
 23 47  1  0
 24 48  1  0
 24 49  1  0
M  END
>  <Energy>  (286) 
569.41830147607106

>  <compound_id>  (286) 
28395

>  <target_id>  (286) 
1

>  <reference_id>  (286) 
123

>  <inspiration_ids>  (286) 
[123, 99]

>  <energy_score>  (286) 
513.9182164966678

>  <distance_score>  (286) 
12.426380892678406

>  <path>  (286) 
/opt/xchem-fragalysis-2/maxwin/BulkDock/SCRATCH/511015/C28395-P123/C28395-P123.minimised.mol

>  <scratch_subdir>  (286) 
/opt/xchem-fragalysis-2/maxwin/BulkDock/SCRATCH/511015/C28395-P123

>  <fragmenstein_runtime>  (286) 
40.76138234138489

>  <fragmenstein_outcome>  (286) 
too moved

>  <fragmenstein_mode>  (286) 
expansion

>  <fragmenstein_error>  (286) 


$$$$
C28395-P99
     RDKit          3D

 49 51  0  0  0  0  0  0  0  0999 V2000
  -14.1785   -7.4285   18.6089 C   0  0  0  0  0  0  0  0  0  0  0  0
  -13.4162   -6.8704   19.8202 C   0  0  0  0  0  0  0  0  0  0  0  0
  -12.1211   -6.1819   19.2905 C   0  0  0  0  0  0  0  0  0  0  0  0
  -12.4524   -4.8341   18.6463 C   0  0  0  0  0  0  0  0  0  0  0  0
  -11.5807   -4.4664   17.5628 N   0  0  0  0  0  0  0  0  0  0  0  0
  -11.8211   -3.6864   16.3926 C   0  0  0  0  0  0  0  0  0  0  0  0
  -12.8281   -3.2036   15.9710 O   0  0  0  0  0  0  0  0  0  0  0  0
  -10.5841   -3.4288   15.6574 C   0  0  0  0  0  0  0  0  0  0  0  0
   -9.4618   -4.2432   15.3906 C   0  0  0  0  0  0  0  0  0  0  0  0
   -8.5031   -3.6121   14.7128 N   0  0  0  0  0  0  0  0  0  0  0  0
   -9.0266   -2.3943   14.5097 N   0  0  0  0  0  0  0  0  0  0  0  0
  -10.2817   -2.2497   15.0063 C   0  0  0  0  0  0  0  0  0  0  0  0
  -13.2798   -7.8961   20.8861 N   0  0  0  0  0  0  0  0  0  0  0  0
  -13.0020   -7.7635   22.3070 C   0  0  0  0  0  0  0  0  0  0  0  0
  -12.7337   -6.7956   22.9624 O   0  0  0  0  0  0  0  0  0  0  0  0
  -13.1873   -9.0820   23.1077 C   0  0  0  0  0  0  0  0  0  0  0  0
  -14.1867  -10.0988   22.9493 C   0  0  0  0  0  0  0  0  0  0  0  0
  -14.0845  -10.9422   24.0361 C   0  0  0  0  0  0  0  0  0  0  0  0
  -13.0608  -10.4514   24.7859 N   0  0  0  0  0  0  0  0  0  0  0  0
  -12.6805  -10.8375   26.1353 C   0  0  0  0  0  0  0  0  0  0  0  0
  -13.5007  -10.0787   27.1934 C   0  0  0  0  0  0  0  0  0  0  0  0
  -13.7897  -11.1006   28.2829 C   0  0  0  0  0  0  0  0  0  0  0  0
  -13.9564  -12.3954   27.5084 C   0  0  0  0  0  0  0  0  0  0  0  0
  -12.8416  -12.3312   26.4728 C   0  0  0  0  0  0  0  0  0  0  0  0
  -12.4749   -9.3651   24.2304 N   0  0  0  0  0  0  0  0  0  0  0  0
  -14.3067   -6.7027   17.8026 H   0  0  0  0  0  0  0  0  0  0  0  0
  -13.6886   -8.3132   18.2013 H   0  0  0  0  0  0  0  0  0  0  0  0
  -15.1796   -7.7478   18.9219 H   0  0  0  0  0  0  0  0  0  0  0  0
  -14.0311   -6.0898   20.2868 H   0  0  0  0  0  0  0  0  0  0  0  0
  -11.5801   -6.8473   18.6107 H   0  0  0  0  0  0  0  0  0  0  0  0
  -11.4680   -5.9659   20.1315 H   0  0  0  0  0  0  0  0  0  0  0  0
  -12.3722   -4.0393   19.3972 H   0  0  0  0  0  0  0  0  0  0  0  0
  -13.4745   -4.7826   18.2607 H   0  0  0  0  0  0  0  0  0  0  0  0
  -10.5862   -4.6355   17.6476 H   0  0  0  0  0  0  0  0  0  0  0  0
   -9.2926   -5.2678   15.6760 H   0  0  0  0  0  0  0  0  0  0  0  0
   -8.4710   -1.7042   14.0191 H   0  0  0  0  0  0  0  0  0  0  0  0
  -10.8394   -1.3304   14.8957 H   0  0  0  0  0  0  0  0  0  0  0  0
  -13.3862   -8.8887   20.6580 H   0  0  0  0  0  0  0  0  0  0  0  0
  -14.9331  -10.1471   22.1690 H   0  0  0  0  0  0  0  0  0  0  0  0
  -14.6824  -11.7888   24.3401 H   0  0  0  0  0  0  0  0  0  0  0  0
  -11.6200  -10.5830   26.2412 H   0  0  0  0  0  0  0  0  0  0  0  0
  -12.9554   -9.2141   27.5862 H   0  0  0  0  0  0  0  0  0  0  0  0
  -14.4461   -9.7068   26.7789 H   0  0  0  0  0  0  0  0  0  0  0  0
  -12.9378  -11.1741   28.9690 H   0  0  0  0  0  0  0  0  0  0  0  0
  -14.6789  -10.8453   28.8663 H   0  0  0  0  0  0  0  0  0  0  0  0
  -14.9337  -12.4188   27.0122 H   0  0  0  0  0  0  0  0  0  0  0  0
  -13.8761  -13.2779   28.1495 H   0  0  0  0  0  0  0  0  0  0  0  0
  -13.0516  -12.9734   25.6145 H   0  0  0  0  0  0  0  0  0  0  0  0
  -11.9120  -12.6956   26.9285 H   0  0  0  0  0  0  0  0  0  0  0  0
  1  2  1  0
  2  3  1  0
  3  4  1  0
  4  5  1  0
  5  6  1  0
  6  7  2  0
  6  8  1  0
  8  9  1  0
  9 10  2  0
 10 11  1  0
 11 12  1  0
  2 13  1  0
 13 14  1  0
 14 15  2  0
 14 16  1  0
 16 17  1  0
 17 18  2  0
 18 19  1  0
 19 20  1  0
 20 21  1  0
 21 22  1  0
 22 23  1  0
 23 24  1  0
 19 25  1  0
 12  8  2  0
 25 16  2  0
 24 20  1  0
  1 26  1  0
  1 27  1  0
  1 28  1  0
  2 29  1  0
  3 30  1  0
  3 31  1  0
  4 32  1  0
  4 33  1  0
  5 34  1  0
  9 35  1  0
 11 36  1  0
 12 37  1  0
 13 38  1  0
 17 39  1  0
 18 40  1  0
 20 41  1  0
 21 42  1  0
 21 43  1  0
 22 44  1  0
 22 45  1  0
 23 46  1  0
 23 47  1  0
 24 48  1  0
 24 49  1  0
M  END
>  <Energy>  (287) 
53.791807623781288

>  <compound_id>  (287) 
28395

>  <target_id>  (287) 
1

>  <reference_id>  (287) 
99

>  <inspiration_ids>  (287) 
[123, 99]

>  <energy_score>  (287) 
-1.7082773556161328

>  <distance_score>  (287) 
13.855051592393284

>  <path>  (287) 
/opt/xchem-fragalysis-2/maxwin/BulkDock/SCRATCH/511015/C28395-P99/C28395-P99.minimised.mol

>  <scratch_subdir>  (287) 
/opt/xchem-fragalysis-2/maxwin/BulkDock/SCRATCH/511015/C28395-P99

>  <fragmenstein_runtime>  (287) 
44.191526651382446

>  <fragmenstein_outcome>  (287) 
too moved

>  <fragmenstein_mode>  (287) 
expansion

>  <fragmenstein_error>  (287) 


$$$$
C28397-P123
     RDKit          3D

 41 43  0  0  0  0  0  0  0  0999 V2000
   -9.4488   -9.7255   14.2612 O   0  0  0  0  0  0  0  0  0  0  0  0
   -8.4987  -10.5088   14.3810 C   0  0  0  0  0  0  0  0  0  0  0  0
   -8.6652  -12.0476   15.5789 C   0  0  0  0  0  0  0  0  0  0  0  0
   -8.2507  -12.8443   17.3992 C   0  0  0  0  0  0  0  0  0  0  0  0
   -9.1044  -12.5914   18.5328 C   0  0  0  0  0  0  0  0  0  0  0  0
   -9.0020  -13.4859   19.5749 C   0  0  0  0  0  0  0  0  0  0  0  0
   -8.9952  -14.8603   19.2200 N   0  0  0  0  0  0  0  0  0  0  0  0
   -9.6381  -16.3179   20.3242 C   0  0  0  0  0  0  0  0  0  0  0  0
  -11.4634  -15.7060   21.5330 C   0  0  0  0  0  0  0  0  0  0  0  0
  -11.4280  -16.6182   23.2889 C   0  0  0  0  0  0  0  0  0  0  0  0
  -10.0174  -18.2449   23.3085 C   0  0  0  0  0  0  0  0  0  0  0  0
   -8.6057  -17.6665   21.7218 C   0  0  0  0  0  0  0  0  0  0  0  0
   -8.0045  -14.4323   17.8307 N   0  0  0  0  0  0  0  0  0  0  0  0
   -7.2684  -10.1135   13.5225 O   0  0  0  0  0  0  0  0  0  0  0  0
   -6.9892   -8.7055   12.4091 C   0  0  0  0  0  0  0  0  0  0  0  0
   -5.7838   -7.9014   11.1467 C   0  0  0  0  0  0  0  0  0  0  0  0
   -5.6595   -6.2614   10.2576 C   0  0  0  0  0  0  0  0  0  0  0  0
   -4.0636   -5.5645    9.5181 C   0  0  0  0  0  0  0  0  0  0  0  0
   -4.0161   -4.5391    8.4255 N   0  0  0  0  0  0  0  0  0  0  0  0
   -5.7568   -4.1952    8.0583 N   0  0  0  0  0  0  0  0  0  0  0  0
   -6.6288   -5.3230    9.1879 C   0  0  0  0  0  0  0  0  0  0  0  0
   -7.8736  -11.5617   16.0601 H   0  0  0  0  0  0  0  0  0  0  0  0
   -8.8945  -12.8291   14.8376 H   0  0  0  0  0  0  0  0  0  0  0  0
   -9.9931  -11.9851   18.4550 H   0  0  0  0  0  0  0  0  0  0  0  0
   -9.2683  -13.3034   20.5804 H   0  0  0  0  0  0  0  0  0  0  0  0
   -8.5485  -15.9381   20.5321 H   0  0  0  0  0  0  0  0  0  0  0  0
  -12.4623  -15.7844   21.0142 H   0  0  0  0  0  0  0  0  0  0  0  0
  -11.2869  -14.7543   22.1543 H   0  0  0  0  0  0  0  0  0  0  0  0
  -12.5645  -16.7498   23.2285 H   0  0  0  0  0  0  0  0  0  0  0  0
  -11.7621  -16.2745   24.2728 H   0  0  0  0  0  0  0  0  0  0  0  0
  -10.0520  -17.6081   24.2997 H   0  0  0  0  0  0  0  0  0  0  0  0
  -10.1740  -19.3859   23.4968 H   0  0  0  0  0  0  0  0  0  0  0  0
   -7.8895  -18.4409   21.3566 H   0  0  0  0  0  0  0  0  0  0  0  0
   -7.8247  -17.0518   22.1724 H   0  0  0  0  0  0  0  0  0  0  0  0
   -6.7599   -9.5688   11.7816 H   0  0  0  0  0  0  0  0  0  0  0  0
   -6.3705   -8.3029   13.2154 H   0  0  0  0  0  0  0  0  0  0  0  0
   -4.7852   -8.0476   11.5740 H   0  0  0  0  0  0  0  0  0  0  0  0
   -5.8620   -8.5642   10.2695 H   0  0  0  0  0  0  0  0  0  0  0  0
   -3.1808   -6.1834    9.6114 H   0  0  0  0  0  0  0  0  0  0  0  0
   -6.0970   -3.7172    7.2235 H   0  0  0  0  0  0  0  0  0  0  0  0
   -7.6475   -5.0415    9.0027 H   0  0  0  0  0  0  0  0  0  0  0  0
  1  2  2  0
  2  3  1  0
  3  4  1  0
  4  5  1  0
  5  6  2  0
  6  7  1  0
  7  8  1  0
  8  9  1  0
  9 10  1  0
 10 11  1  0
 11 12  1  0
  7 13  1  0
  2 14  1  0
 14 15  1  0
 15 16  1  0
 16 17  1  0
 17 18  1  0
 18 19  2  0
 19 20  1  0
 20 21  1  0
 13  4  2  0
 21 17  2  0
 12  8  1  0
  3 22  1  0
  3 23  1  0
  5 24  1  0
  6 25  1  0
  8 26  1  0
  9 27  1  0
  9 28  1  0
 10 29  1  0
 10 30  1  0
 11 31  1  0
 11 32  1  0
 12 33  1  0
 12 34  1  0
 15 35  1  0
 15 36  1  0
 16 37  1  0
 16 38  1  0
 18 39  1  0
 20 40  1  0
 21 41  1  0
M  END
>  <Energy>  (288) 
1516.3172563488611

>  <compound_id>  (288) 
28397

>  <target_id>  (288) 
1

>  <reference_id>  (288) 
123

>  <inspiration_ids>  (288) 
[123, 99]

>  <energy_score>  (288) 
1446.9279589629389

>  <distance_score>  (288) 
9.876517103069972

>  <path>  (288) 
/opt/xchem-fragalysis-2/maxwin/BulkDock/SCRATCH/511015/C28397-P123/C28397-P123.minimised.mol

>  <scratch_subdir>  (288) 
/opt/xchem-fragalysis-2/maxwin/BulkDock/SCRATCH/511015/C28397-P123

>  <fragmenstein_runtime>  (288) 
49.166566133499146

>  <fragmenstein_outcome>  (288) 
too moved

>  <fragmenstein_mode>  (288) 
expansion

>  <fragmenstein_error>  (288) 


$$$$
C28397-P99
     RDKit          3D

 41 43  0  0  0  0  0  0  0  0999 V2000
   -5.7218   -8.7987   16.4030 O   0  0  0  0  0  0  0  0  0  0  0  0
   -6.4430   -9.6759   15.8721 C   0  0  0  0  0  0  0  0  0  0  0  0
   -6.9763  -11.1306   17.3076 C   0  0  0  0  0  0  0  0  0  0  0  0
   -8.1627  -12.5428   18.1954 C   0  0  0  0  0  0  0  0  0  0  0  0
   -9.3941  -12.1419   18.5736 C   0  0  0  0  0  0  0  0  0  0  0  0
  -10.3753  -12.9901   18.3638 C   0  0  0  0  0  0  0  0  0  0  0  0
  -10.2183  -14.4751   19.2621 N   0  0  0  0  0  0  0  0  0  0  0  0
  -11.6419  -15.3886   20.5596 C   0  0  0  0  0  0  0  0  0  0  0  0
  -13.1273  -16.2824   20.7082 C   0  0  0  0  0  0  0  0  0  0  0  0
  -14.0131  -16.6946   22.0882 C   0  0  0  0  0  0  0  0  0  0  0  0
  -13.0428  -16.5055   23.1815 C   0  0  0  0  0  0  0  0  0  0  0  0
  -11.7753  -15.9035   22.5112 C   0  0  0  0  0  0  0  0  0  0  0  0
   -8.5207  -13.7596   19.3242 N   0  0  0  0  0  0  0  0  0  0  0  0
   -6.6880   -9.2792   14.0894 O   0  0  0  0  0  0  0  0  0  0  0  0
   -6.2364   -8.0121   12.6278 C   0  0  0  0  0  0  0  0  0  0  0  0
   -6.1560   -7.3154   10.6372 C   0  0  0  0  0  0  0  0  0  0  0  0
   -6.8700   -5.7403    9.4546 C   0  0  0  0  0  0  0  0  0  0  0  0
   -7.0086   -4.9156    7.8198 C   0  0  0  0  0  0  0  0  0  0  0  0
   -7.8191   -3.9230    7.4787 N   0  0  0  0  0  0  0  0  0  0  0  0
   -8.5593   -3.9327    8.5187 N   0  0  0  0  0  0  0  0  0  0  0  0
   -8.0494   -4.8112    9.4847 C   0  0  0  0  0  0  0  0  0  0  0  0
   -7.7074  -11.5732   16.5922 H   0  0  0  0  0  0  0  0  0  0  0  0
   -6.0072  -11.6139   17.5537 H   0  0  0  0  0  0  0  0  0  0  0  0
   -9.8984  -11.1812   18.6405 H   0  0  0  0  0  0  0  0  0  0  0  0
  -11.2704  -12.4588   18.0769 H   0  0  0  0  0  0  0  0  0  0  0  0
  -11.5404  -14.1521   21.0666 H   0  0  0  0  0  0  0  0  0  0  0  0
  -13.4292  -15.4075   21.0987 H   0  0  0  0  0  0  0  0  0  0  0  0
  -13.7639  -16.5800   19.8994 H   0  0  0  0  0  0  0  0  0  0  0  0
  -14.5385  -17.6398   22.0813 H   0  0  0  0  0  0  0  0  0  0  0  0
  -14.9723  -16.2224   22.2779 H   0  0  0  0  0  0  0  0  0  0  0  0
  -12.9920  -17.4527   23.6977 H   0  0  0  0  0  0  0  0  0  0  0  0
  -13.2394  -15.9418   24.0909 H   0  0  0  0  0  0  0  0  0  0  0  0
  -11.1474  -16.5096   23.1354 H   0  0  0  0  0  0  0  0  0  0  0  0
  -11.5496  -14.9862   22.9848 H   0  0  0  0  0  0  0  0  0  0  0  0
   -5.2352   -8.4641   12.5890 H   0  0  0  0  0  0  0  0  0  0  0  0
   -6.1561   -7.1132   13.2505 H   0  0  0  0  0  0  0  0  0  0  0  0
   -6.3477   -8.1967   10.0087 H   0  0  0  0  0  0  0  0  0  0  0  0
   -5.1056   -7.0212   10.6588 H   0  0  0  0  0  0  0  0  0  0  0  0
   -6.5291   -5.1525    6.8681 H   0  0  0  0  0  0  0  0  0  0  0  0
   -9.4172   -3.3794    8.5716 H   0  0  0  0  0  0  0  0  0  0  0  0
   -8.9156   -4.8366   10.1552 H   0  0  0  0  0  0  0  0  0  0  0  0
  1  2  2  0
  2  3  1  0
  3  4  1  0
  4  5  1  0
  5  6  2  0
  6  7  1  0
  7  8  1  0
  8  9  1  0
  9 10  1  0
 10 11  1  0
 11 12  1  0
  7 13  1  0
  2 14  1  0
 14 15  1  0
 15 16  1  0
 16 17  1  0
 17 18  1  0
 18 19  2  0
 19 20  1  0
 20 21  1  0
 13  4  2  0
 21 17  2  0
 12  8  1  0
  3 22  1  0
  3 23  1  0
  5 24  1  0
  6 25  1  0
  8 26  1  0
  9 27  1  0
  9 28  1  0
 10 29  1  0
 10 30  1  0
 11 31  1  0
 11 32  1  0
 12 33  1  0
 12 34  1  0
 15 35  1  0
 15 36  1  0
 16 37  1  0
 16 38  1  0
 18 39  1  0
 20 40  1  0
 21 41  1  0
M  END
>  <Energy>  (289) 
1612.5007721096317

>  <compound_id>  (289) 
28397

>  <target_id>  (289) 
1

>  <reference_id>  (289) 
99

>  <inspiration_ids>  (289) 
[123, 99]

>  <energy_score>  (289) 
1543.1114747236686

>  <distance_score>  (289) 
9.919352850601861

>  <path>  (289) 
/opt/xchem-fragalysis-2/maxwin/BulkDock/SCRATCH/511015/C28397-P99/C28397-P99.minimised.mol

>  <scratch_subdir>  (289) 
/opt/xchem-fragalysis-2/maxwin/BulkDock/SCRATCH/511015/C28397-P99

>  <fragmenstein_runtime>  (289) 
52.07381820678711

>  <fragmenstein_outcome>  (289) 
too moved

>  <fragmenstein_mode>  (289) 
expansion

>  <fragmenstein_error>  (289) 


$$$$
C28398-P123
     RDKit          3D

 53 55  0  0  0  0  0  0  0  0999 V2000
   -8.6803  -11.7857   12.9958 C   0  0  0  0  0  0  0  0  0  0  0  0
   -8.2755  -10.9772   14.2122 C   0  0  0  0  0  0  0  0  0  0  0  0
   -7.0991   -9.4445   13.7158 C   0  0  0  0  0  0  0  0  0  0  0  0
   -6.0720   -8.7067   12.2126 C   0  0  0  0  0  0  0  0  0  0  0  0
   -5.8078   -9.8627   11.2430 C   0  0  0  0  0  0  0  0  0  0  0  0
   -5.0267   -7.3750   11.4175 N   0  0  0  0  0  0  0  0  0  0  0  0
   -5.3879   -6.1984   10.1594 C   0  0  0  0  0  0  0  0  0  0  0  0
   -6.4898   -6.0841    9.7174 O   0  0  0  0  0  0  0  0  0  0  0  0
   -4.1429   -5.0116    9.1063 C   0  0  0  0  0  0  0  0  0  0  0  0
   -3.3797   -4.6114    7.7082 C   0  0  0  0  0  0  0  0  0  0  0  0
   -3.1730   -3.3283    7.3004 N   0  0  0  0  0  0  0  0  0  0  0  0
   -4.3764   -2.8944    7.3385 N   0  0  0  0  0  0  0  0  0  0  0  0
   -5.0654   -3.9080    7.8932 C   0  0  0  0  0  0  0  0  0  0  0  0
   -8.5364  -12.2357   15.6640 N   0  0  0  0  0  0  0  0  0  0  0  0
   -7.6759  -13.5818   16.8421 C   0  0  0  0  0  0  0  0  0  0  0  0
   -7.6947  -15.5215   17.1610 C   0  0  0  0  0  0  0  0  0  0  0  0
   -7.9163  -16.5291   16.2034 C   0  0  0  0  0  0  0  0  0  0  0  0
   -8.2796  -17.7045   16.8812 C   0  0  0  0  0  0  0  0  0  0  0  0
   -7.5857  -17.4216   18.0322 N   0  0  0  0  0  0  0  0  0  0  0  0
   -6.6415  -18.3258   18.8583 C   0  0  0  0  0  0  0  0  0  0  0  0
   -6.6046  -18.5525   20.4036 C   0  0  0  0  0  0  0  0  0  0  0  0
   -6.0865  -19.9801   20.5777 C   0  0  0  0  0  0  0  0  0  0  0  0
   -6.7790  -20.7372   19.4769 C   0  0  0  0  0  0  0  0  0  0  0  0
   -6.5717  -19.8077   18.2971 C   0  0  0  0  0  0  0  0  0  0  0  0
   -8.1626  -16.1591   18.2723 N   0  0  0  0  0  0  0  0  0  0  0  0
   -9.1374  -12.7383   13.2893 H   0  0  0  0  0  0  0  0  0  0  0  0
   -9.4720  -11.2679   12.4516 H   0  0  0  0  0  0  0  0  0  0  0  0
   -7.8205  -12.0477   12.3800 H   0  0  0  0  0  0  0  0  0  0  0  0
   -9.1699  -10.3850   14.4519 H   0  0  0  0  0  0  0  0  0  0  0  0
   -6.3257   -9.5005   14.4967 H   0  0  0  0  0  0  0  0  0  0  0  0
   -7.7240   -8.6013   14.0214 H   0  0  0  0  0  0  0  0  0  0  0  0
   -5.2100   -8.8008   12.9007 H   0  0  0  0  0  0  0  0  0  0  0  0
   -6.2660  -10.7924   11.5727 H   0  0  0  0  0  0  0  0  0  0  0  0
   -6.1533   -9.5921   10.2439 H   0  0  0  0  0  0  0  0  0  0  0  0
   -4.7314  -10.0535   11.1556 H   0  0  0  0  0  0  0  0  0  0  0  0
   -4.0302   -7.3669   11.5871 H   0  0  0  0  0  0  0  0  0  0  0  0
   -2.9917   -5.2546    6.9513 H   0  0  0  0  0  0  0  0  0  0  0  0
   -4.6694   -2.0581    6.8381 H   0  0  0  0  0  0  0  0  0  0  0  0
   -6.1479   -3.9761    7.7066 H   0  0  0  0  0  0  0  0  0  0  0  0
   -8.0942  -11.6518   16.3470 H   0  0  0  0  0  0  0  0  0  0  0  0
   -6.6602  -13.8837   16.5850 H   0  0  0  0  0  0  0  0  0  0  0  0
   -7.8651  -13.0911   17.8162 H   0  0  0  0  0  0  0  0  0  0  0  0
   -7.8476  -16.3647   15.1281 H   0  0  0  0  0  0  0  0  0  0  0  0
   -8.6139  -18.6872   16.5688 H   0  0  0  0  0  0  0  0  0  0  0  0
   -5.6590  -17.8580   18.6825 H   0  0  0  0  0  0  0  0  0  0  0  0
   -5.9853  -17.7914   20.8676 H   0  0  0  0  0  0  0  0  0  0  0  0
   -7.5306  -18.5331   20.9718 H   0  0  0  0  0  0  0  0  0  0  0  0
   -5.0101  -20.0370   20.3955 H   0  0  0  0  0  0  0  0  0  0  0  0
   -6.3070  -20.3869   21.5685 H   0  0  0  0  0  0  0  0  0  0  0  0
   -7.8451  -20.8630   19.6953 H   0  0  0  0  0  0  0  0  0  0  0  0
   -6.3422  -21.7254   19.3070 H   0  0  0  0  0  0  0  0  0  0  0  0
   -5.5703  -19.9795   17.8800 H   0  0  0  0  0  0  0  0  0  0  0  0
   -7.2896  -20.0534   17.5132 H   0  0  0  0  0  0  0  0  0  0  0  0
  1  2  1  0
  2  3  1  0
  3  4  1  0
  4  5  1  0
  4  6  1  0
  6  7  1  0
  7  8  2  0
  7  9  1  0
  9 10  1  0
 10 11  2  0
 11 12  1  0
 12 13  1  0
  2 14  1  0
 14 15  1  0
 15 16  1  0
 16 17  1  0
 17 18  2  0
 18 19  1  0
 19 20  1  0
 20 21  1  0
 21 22  1  0
 22 23  1  0
 23 24  1  0
 19 25  1  0
 13  9  2  0
 25 16  2  0
 24 20  1  0
  1 26  1  0
  1 27  1  0
  1 28  1  0
  2 29  1  0
  3 30  1  0
  3 31  1  0
  4 32  1  0
  5 33  1  0
  5 34  1  0
  5 35  1  0
  6 36  1  0
 10 37  1  0
 12 38  1  0
 13 39  1  0
 14 40  1  0
 15 41  1  0
 15 42  1  0
 17 43  1  0
 18 44  1  0
 20 45  1  0
 21 46  1  0
 21 47  1  0
 22 48  1  0
 22 49  1  0
 23 50  1  0
 23 51  1  0
 24 52  1  0
 24 53  1  0
M  END
>  <Energy>  (290) 
915.89848722463728

>  <compound_id>  (290) 
28398

>  <target_id>  (290) 
1

>  <reference_id>  (290) 
123

>  <inspiration_ids>  (290) 
[123, 99]

>  <energy_score>  (290) 
836.881447357955

>  <distance_score>  (290) 
12.171741262833521

>  <path>  (290) 
/opt/xchem-fragalysis-2/maxwin/BulkDock/SCRATCH/511015/C28398-P123/C28398-P123.minimised.mol

>  <scratch_subdir>  (290) 
/opt/xchem-fragalysis-2/maxwin/BulkDock/SCRATCH/511015/C28398-P123

>  <fragmenstein_runtime>  (290) 
65.72959971427917

>  <fragmenstein_outcome>  (290) 
too moved

>  <fragmenstein_mode>  (290) 
expansion

>  <fragmenstein_error>  (290) 


$$$$
C28398-P99
     RDKit          3D

 53 55  0  0  0  0  0  0  0  0999 V2000
  -10.2978  -16.2130   12.1616 C   0  0  0  0  0  0  0  0  0  0  0  0
   -8.8557  -16.7228   12.2917 C   0  0  0  0  0  0  0  0  0  0  0  0
   -7.8932  -15.4893   12.4015 C   0  0  0  0  0  0  0  0  0  0  0  0
   -7.9395  -14.5067   11.2156 C   0  0  0  0  0  0  0  0  0  0  0  0
   -6.7093  -13.6021   11.2416 C   0  0  0  0  0  0  0  0  0  0  0  0
   -9.1449  -13.6896   11.1399 N   0  0  0  0  0  0  0  0  0  0  0  0
   -9.8187  -12.9087   12.1400 C   0  0  0  0  0  0  0  0  0  0  0  0
   -9.6080  -12.7918   13.3097 O   0  0  0  0  0  0  0  0  0  0  0  0
  -10.9405  -12.1242   11.5755 C   0  0  0  0  0  0  0  0  0  0  0  0
  -11.6489  -12.1937   10.3462 C   0  0  0  0  0  0  0  0  0  0  0  0
  -12.5441  -11.2136   10.1915 N   0  0  0  0  0  0  0  0  0  0  0  0
  -12.4676  -10.5445   11.3491 N   0  0  0  0  0  0  0  0  0  0  0  0
  -11.5169  -11.0261   12.1930 C   0  0  0  0  0  0  0  0  0  0  0  0
   -8.6485  -17.6923   13.4362 N   0  0  0  0  0  0  0  0  0  0  0  0
   -9.4789  -18.9289   13.5741 C   0  0  0  0  0  0  0  0  0  0  0  0
   -9.4799  -19.6301   15.0040 C   0  0  0  0  0  0  0  0  0  0  0  0
  -10.5823  -19.7529   15.9174 C   0  0  0  0  0  0  0  0  0  0  0  0
  -10.1577  -20.5623   16.9483 C   0  0  0  0  0  0  0  0  0  0  0  0
   -8.8674  -20.8848   16.6484 N   0  0  0  0  0  0  0  0  0  0  0  0
   -7.9887  -21.8019   17.3484 C   0  0  0  0  0  0  0  0  0  0  0  0
   -7.9236  -21.6294   18.8706 C   0  0  0  0  0  0  0  0  0  0  0  0
   -7.5349  -23.0116   19.3698 C   0  0  0  0  0  0  0  0  0  0  0  0
   -8.3690  -23.9326   18.4955 C   0  0  0  0  0  0  0  0  0  0  0  0
   -8.3496  -23.2803   17.1149 C   0  0  0  0  0  0  0  0  0  0  0  0
   -8.4520  -20.3724   15.4615 N   0  0  0  0  0  0  0  0  0  0  0  0
  -11.0171  -17.0363   12.1929 H   0  0  0  0  0  0  0  0  0  0  0  0
  -10.5624  -15.5202   12.9647 H   0  0  0  0  0  0  0  0  0  0  0  0
  -10.4709  -15.7392   11.1924 H   0  0  0  0  0  0  0  0  0  0  0  0
   -8.6031  -17.2720   11.3762 H   0  0  0  0  0  0  0  0  0  0  0  0
   -6.8751  -15.8934   12.4801 H   0  0  0  0  0  0  0  0  0  0  0  0
   -8.0942  -14.9602   13.3402 H   0  0  0  0  0  0  0  0  0  0  0  0
   -7.9099  -15.0857   10.2847 H   0  0  0  0  0  0  0  0  0  0  0  0
   -6.7728  -12.8688   12.0506 H   0  0  0  0  0  0  0  0  0  0  0  0
   -6.6193  -13.0508   10.3015 H   0  0  0  0  0  0  0  0  0  0  0  0
   -5.7877  -14.1802   11.3649 H   0  0  0  0  0  0  0  0  0  0  0  0
   -9.6460  -13.6109   10.2682 H   0  0  0  0  0  0  0  0  0  0  0  0
  -11.5409  -12.9058    9.5390 H   0  0  0  0  0  0  0  0  0  0  0  0
  -13.1068   -9.7728   11.5019 H   0  0  0  0  0  0  0  0  0  0  0  0
  -11.3190  -10.5672   13.1522 H   0  0  0  0  0  0  0  0  0  0  0  0
   -7.6696  -17.9670   13.4931 H   0  0  0  0  0  0  0  0  0  0  0  0
  -10.5279  -18.7099   13.3558 H   0  0  0  0  0  0  0  0  0  0  0  0
   -9.1372  -19.6698   12.8419 H   0  0  0  0  0  0  0  0  0  0  0  0
  -11.5651  -19.3176   15.8048 H   0  0  0  0  0  0  0  0  0  0  0  0
  -10.6637  -20.9349   17.8265 H   0  0  0  0  0  0  0  0  0  0  0  0
   -6.9791  -21.6284   16.9491 H   0  0  0  0  0  0  0  0  0  0  0  0
   -7.1956  -20.8675   19.1667 H   0  0  0  0  0  0  0  0  0  0  0  0
   -8.8925  -21.3488   19.2966 H   0  0  0  0  0  0  0  0  0  0  0  0
   -6.4662  -23.1914   19.2040 H   0  0  0  0  0  0  0  0  0  0  0  0
   -7.7459  -23.1444   20.4347 H   0  0  0  0  0  0  0  0  0  0  0  0
   -7.9798  -24.9547   18.4765 H   0  0  0  0  0  0  0  0  0  0  0  0
   -9.3988  -23.9713   18.8706 H   0  0  0  0  0  0  0  0  0  0  0  0
   -9.3080  -23.4238   16.6040 H   0  0  0  0  0  0  0  0  0  0  0  0
   -7.5791  -23.7492   16.4909 H   0  0  0  0  0  0  0  0  0  0  0  0
  1  2  1  0
  2  3  1  0
  3  4  1  0
  4  5  1  0
  4  6  1  0
  6  7  1  0
  7  8  2  0
  7  9  1  0
  9 10  1  0
 10 11  2  0
 11 12  1  0
 12 13  1  0
  2 14  1  0
 14 15  1  0
 15 16  1  0
 16 17  1  0
 17 18  2  0
 18 19  1  0
 19 20  1  0
 20 21  1  0
 21 22  1  0
 22 23  1  0
 23 24  1  0
 19 25  1  0
 13  9  2  0
 25 16  2  0
 24 20  1  0
  1 26  1  0
  1 27  1  0
  1 28  1  0
  2 29  1  0
  3 30  1  0
  3 31  1  0
  4 32  1  0
  5 33  1  0
  5 34  1  0
  5 35  1  0
  6 36  1  0
 10 37  1  0
 12 38  1  0
 13 39  1  0
 14 40  1  0
 15 41  1  0
 15 42  1  0
 17 43  1  0
 18 44  1  0
 20 45  1  0
 21 46  1  0
 21 47  1  0
 22 48  1  0
 22 49  1  0
 23 50  1  0
 23 51  1  0
 24 52  1  0
 24 53  1  0
M  END
>  <Energy>  (291) 
45.363619264751094

>  <compound_id>  (291) 
28398

>  <target_id>  (291) 
1

>  <reference_id>  (291) 
99

>  <inspiration_ids>  (291) 
[123, 99]

>  <energy_score>  (291) 
-33.653420601918356

>  <distance_score>  (291) 
14.512047381010472

>  <path>  (291) 
/opt/xchem-fragalysis-2/maxwin/BulkDock/SCRATCH/511015/C28398-P99/C28398-P99.minimised.mol

>  <scratch_subdir>  (291) 
/opt/xchem-fragalysis-2/maxwin/BulkDock/SCRATCH/511015/C28398-P99

>  <fragmenstein_runtime>  (291) 
110.67470479011536

>  <fragmenstein_outcome>  (291) 
too moved

>  <fragmenstein_mode>  (291) 
expansion

>  <fragmenstein_error>  (291) 


$$$$
C28401-P123
     RDKit          3D

 46 48  0  0  0  0  0  0  0  0999 V2000
   -3.8529  -18.2174   16.2276 C   0  0  0  0  0  0  0  0  0  0  0  0
   -5.0827  -17.6242   16.8475 N   0  0  0  0  0  0  0  0  0  0  0  0
   -4.8911  -18.8463   17.8432 C   0  0  0  0  0  0  0  0  0  0  0  0
   -6.1366  -18.9444   18.7714 C   0  0  0  0  0  0  0  0  0  0  0  0
   -6.2034  -19.9048   19.8782 N   0  0  0  0  0  0  0  0  0  0  0  0
   -6.4502  -21.3279   19.8842 C   0  0  0  0  0  0  0  0  0  0  0  0
   -6.5835  -22.0998   18.9785 O   0  0  0  0  0  0  0  0  0  0  0  0
   -6.6701  -21.8842   21.3017 C   0  0  0  0  0  0  0  0  0  0  0  0
   -7.1879  -21.2294   22.4711 C   0  0  0  0  0  0  0  0  0  0  0  0
   -7.3166  -22.1952   23.4437 C   0  0  0  0  0  0  0  0  0  0  0  0
   -6.8994  -23.3518   22.8638 N   0  0  0  0  0  0  0  0  0  0  0  0
   -6.8786  -24.6668   23.4839 C   0  0  0  0  0  0  0  0  0  0  0  0
   -7.6088  -25.7430   22.6628 C   0  0  0  0  0  0  0  0  0  0  0  0
   -6.5050  -26.6372   22.1150 C   0  0  0  0  0  0  0  0  0  0  0  0
   -5.4762  -26.6414   23.2322 C   0  0  0  0  0  0  0  0  0  0  0  0
   -5.4497  -25.1932   23.7041 C   0  0  0  0  0  0  0  0  0  0  0  0
   -6.4771  -23.1928   21.5955 N   0  0  0  0  0  0  0  0  0  0  0  0
   -6.0818  -17.3825   15.8360 C   0  0  0  0  0  0  0  0  0  0  0  0
   -6.9681  -18.0872   15.4322 O   0  0  0  0  0  0  0  0  0  0  0  0
   -5.9904  -16.0184   15.2115 C   0  0  0  0  0  0  0  0  0  0  0  0
   -5.0527  -14.9556   15.3184 C   0  0  0  0  0  0  0  0  0  0  0  0
   -5.3341  -13.8931   14.5487 N   0  0  0  0  0  0  0  0  0  0  0  0
   -6.4791  -14.2434   13.9449 N   0  0  0  0  0  0  0  0  0  0  0  0
   -6.9017  -15.4925   14.2964 C   0  0  0  0  0  0  0  0  0  0  0  0
   -3.5616  -17.5244   15.4250 H   0  0  0  0  0  0  0  0  0  0  0  0
   -4.0388  -19.1569   15.6859 H   0  0  0  0  0  0  0  0  0  0  0  0
   -2.9657  -18.2363   16.8764 H   0  0  0  0  0  0  0  0  0  0  0  0
   -4.0267  -18.6737   18.5005 H   0  0  0  0  0  0  0  0  0  0  0  0
   -4.8556  -19.8255   17.3412 H   0  0  0  0  0  0  0  0  0  0  0  0
   -6.3202  -17.9662   19.2195 H   0  0  0  0  0  0  0  0  0  0  0  0
   -6.9692  -19.1955   18.1112 H   0  0  0  0  0  0  0  0  0  0  0  0
   -6.0631  -19.5888   20.8351 H   0  0  0  0  0  0  0  0  0  0  0  0
   -7.4575  -20.1878   22.5620 H   0  0  0  0  0  0  0  0  0  0  0  0
   -7.6809  -22.1727   24.4576 H   0  0  0  0  0  0  0  0  0  0  0  0
   -7.3853  -24.5611   24.4517 H   0  0  0  0  0  0  0  0  0  0  0  0
   -8.2473  -25.3444   21.8680 H   0  0  0  0  0  0  0  0  0  0  0  0
   -8.2478  -26.3335   23.3317 H   0  0  0  0  0  0  0  0  0  0  0  0
   -6.0775  -26.2015   21.2045 H   0  0  0  0  0  0  0  0  0  0  0  0
   -6.8655  -27.6421   21.8778 H   0  0  0  0  0  0  0  0  0  0  0  0
   -4.4944  -26.9852   22.8945 H   0  0  0  0  0  0  0  0  0  0  0  0
   -5.8054  -27.2966   24.0475 H   0  0  0  0  0  0  0  0  0  0  0  0
   -4.7104  -24.6278   23.1241 H   0  0  0  0  0  0  0  0  0  0  0  0
   -5.1537  -25.1252   24.7563 H   0  0  0  0  0  0  0  0  0  0  0  0
   -4.1599  -14.9251   15.9279 H   0  0  0  0  0  0  0  0  0  0  0  0
   -6.9130  -13.5866   13.3038 H   0  0  0  0  0  0  0  0  0  0  0  0
   -7.8057  -15.9163   13.8810 H   0  0  0  0  0  0  0  0  0  0  0  0
  1  2  1  0
  2  3  1  0
  3  4  1  0
  4  5  1  0
  5  6  1  0
  6  7  2  0
  6  8  1  0
  8  9  1  0
  9 10  2  0
 10 11  1  0
 11 12  1  0
 12 13  1  0
 13 14  1  0
 14 15  1  0
 15 16  1  0
 11 17  1  0
  2 18  1  0
 18 19  2  0
 18 20  1  0
 20 21  1  0
 21 22  2  0
 22 23  1  0
 23 24  1  0
 17  8  2  0
 24 20  2  0
 16 12  1  0
  1 25  1  0
  1 26  1  0
  1 27  1  0
  3 28  1  0
  3 29  1  0
  4 30  1  0
  4 31  1  0
  5 32  1  0
  9 33  1  0
 10 34  1  0
 12 35  1  0
 13 36  1  0
 13 37  1  0
 14 38  1  0
 14 39  1  0
 15 40  1  0
 15 41  1  0
 16 42  1  0
 16 43  1  0
 21 44  1  0
 23 45  1  0
 24 46  1  0
M  END
>  <Energy>  (292) 
130.23647804830927

>  <compound_id>  (292) 
28401

>  <target_id>  (292) 
1

>  <reference_id>  (292) 
123

>  <inspiration_ids>  (292) 
[123, 99]

>  <energy_score>  (292) 
48.29772434020106

>  <distance_score>  (292) 
15.951840717312622

>  <path>  (292) 
/opt/xchem-fragalysis-2/maxwin/BulkDock/SCRATCH/511015/C28401-P123/C28401-P123.minimised.mol

>  <scratch_subdir>  (292) 
/opt/xchem-fragalysis-2/maxwin/BulkDock/SCRATCH/511015/C28401-P123

>  <fragmenstein_runtime>  (292) 
48.76350665092468

>  <fragmenstein_outcome>  (292) 
too moved

>  <fragmenstein_mode>  (292) 
expansion

>  <fragmenstein_error>  (292) 


$$$$
C28401-P99
     RDKit          3D

 46 48  0  0  0  0  0  0  0  0999 V2000
  -11.9330  -16.6930   14.9180 C   0  0  0  0  0  0  0  0  0  0  0  0
  -13.0085  -15.6995   15.2385 N   0  0  0  0  0  0  0  0  0  0  0  0
  -13.5418  -16.8927   16.1015 C   0  0  0  0  0  0  0  0  0  0  0  0
  -13.1067  -16.9090   17.6036 C   0  0  0  0  0  0  0  0  0  0  0  0
  -13.4099  -18.1116   18.3993 N   0  0  0  0  0  0  0  0  0  0  0  0
  -14.6039  -18.5024   19.1014 C   0  0  0  0  0  0  0  0  0  0  0  0
  -15.6821  -17.9881   19.1523 O   0  0  0  0  0  0  0  0  0  0  0  0
  -14.3632  -19.7187   19.9807 C   0  0  0  0  0  0  0  0  0  0  0  0
  -15.2351  -20.2005   21.0103 C   0  0  0  0  0  0  0  0  0  0  0  0
  -14.5342  -21.1621   21.6992 C   0  0  0  0  0  0  0  0  0  0  0  0
  -13.3241  -21.2579   21.0767 N   0  0  0  0  0  0  0  0  0  0  0  0
  -12.2164  -22.1317   21.4331 C   0  0  0  0  0  0  0  0  0  0  0  0
  -12.5120  -23.6094   21.1320 C   0  0  0  0  0  0  0  0  0  0  0  0
  -11.8955  -24.3758   22.2934 C   0  0  0  0  0  0  0  0  0  0  0  0
  -12.1243  -23.4548   23.4788 C   0  0  0  0  0  0  0  0  0  0  0  0
  -11.8186  -22.0710   22.9192 C   0  0  0  0  0  0  0  0  0  0  0  0
  -13.1894  -20.3946   20.0275 N   0  0  0  0  0  0  0  0  0  0  0  0
  -13.5201  -15.1155   14.0244 C   0  0  0  0  0  0  0  0  0  0  0  0
  -14.4338  -15.4548   13.3211 O   0  0  0  0  0  0  0  0  0  0  0  0
  -12.7694  -13.9037   13.5781 C   0  0  0  0  0  0  0  0  0  0  0  0
  -12.8353  -13.2832   12.2891 C   0  0  0  0  0  0  0  0  0  0  0  0
  -12.0540  -12.2038   12.1639 N   0  0  0  0  0  0  0  0  0  0  0  0
  -11.4845  -12.1018   13.3738 N   0  0  0  0  0  0  0  0  0  0  0  0
  -11.8913  -13.0727   14.2512 C   0  0  0  0  0  0  0  0  0  0  0  0
  -12.2622  -17.4673   14.2073 H   0  0  0  0  0  0  0  0  0  0  0  0
  -11.1829  -16.1335   14.3394 H   0  0  0  0  0  0  0  0  0  0  0  0
  -11.3546  -17.0873   15.7624 H   0  0  0  0  0  0  0  0  0  0  0  0
  -14.6208  -16.6707   16.1291 H   0  0  0  0  0  0  0  0  0  0  0  0
  -13.5594  -17.8922   15.6327 H   0  0  0  0  0  0  0  0  0  0  0  0
  -12.0305  -16.7460   17.7103 H   0  0  0  0  0  0  0  0  0  0  0  0
  -13.6077  -16.0742   18.1061 H   0  0  0  0  0  0  0  0  0  0  0  0
  -12.7036  -18.8349   18.5191 H   0  0  0  0  0  0  0  0  0  0  0  0
  -16.2258  -19.8305   21.2381 H   0  0  0  0  0  0  0  0  0  0  0  0
  -14.7869  -21.7593   22.5656 H   0  0  0  0  0  0  0  0  0  0  0  0
  -11.3574  -21.8036   20.8332 H   0  0  0  0  0  0  0  0  0  0  0  0
  -12.0866  -23.9208   20.1723 H   0  0  0  0  0  0  0  0  0  0  0  0
  -13.5898  -23.8085   21.0899 H   0  0  0  0  0  0  0  0  0  0  0  0
  -12.3554  -25.3581   22.4332 H   0  0  0  0  0  0  0  0  0  0  0  0
  -10.8217  -24.5196   22.1250 H   0  0  0  0  0  0  0  0  0  0  0  0
  -13.1697  -23.5085   23.8048 H   0  0  0  0  0  0  0  0  0  0  0  0
  -11.4878  -23.7064   24.3320 H   0  0  0  0  0  0  0  0  0  0  0  0
  -10.7401  -21.8832   22.9944 H   0  0  0  0  0  0  0  0  0  0  0  0
  -12.3242  -21.2865   23.4894 H   0  0  0  0  0  0  0  0  0  0  0  0
  -13.4333  -13.6009   11.4433 H   0  0  0  0  0  0  0  0  0  0  0  0
  -10.8324  -11.3412   13.5365 H   0  0  0  0  0  0  0  0  0  0  0  0
  -11.5398  -13.0828   15.2709 H   0  0  0  0  0  0  0  0  0  0  0  0
  1  2  1  0
  2  3  1  0
  3  4  1  0
  4  5  1  0
  5  6  1  0
  6  7  2  0
  6  8  1  0
  8  9  1  0
  9 10  2  0
 10 11  1  0
 11 12  1  0
 12 13  1  0
 13 14  1  0
 14 15  1  0
 15 16  1  0
 11 17  1  0
  2 18  1  0
 18 19  2  0
 18 20  1  0
 20 21  1  0
 21 22  2  0
 22 23  1  0
 23 24  1  0
 17  8  2  0
 24 20  2  0
 16 12  1  0
  1 25  1  0
  1 26  1  0
  1 27  1  0
  3 28  1  0
  3 29  1  0
  4 30  1  0
  4 31  1  0
  5 32  1  0
  9 33  1  0
 10 34  1  0
 12 35  1  0
 13 36  1  0
 13 37  1  0
 14 38  1  0
 14 39  1  0
 15 40  1  0
 15 41  1  0
 16 42  1  0
 16 43  1  0
 21 44  1  0
 23 45  1  0
 24 46  1  0
M  END
>  <Energy>  (293) 
118.71684334662805

>  <compound_id>  (293) 
28401

>  <target_id>  (293) 
1

>  <reference_id>  (293) 
99

>  <inspiration_ids>  (293) 
[123, 99]

>  <energy_score>  (293) 
36.77808963852203

>  <distance_score>  (293) 
15.421147822078641

>  <path>  (293) 
/opt/xchem-fragalysis-2/maxwin/BulkDock/SCRATCH/511015/C28401-P99/C28401-P99.minimised.mol

>  <scratch_subdir>  (293) 
/opt/xchem-fragalysis-2/maxwin/BulkDock/SCRATCH/511015/C28401-P99

>  <fragmenstein_runtime>  (293) 
39.90716290473938

>  <fragmenstein_outcome>  (293) 
too moved

>  <fragmenstein_mode>  (293) 
expansion

>  <fragmenstein_error>  (293) 


$$$$
C28402-P123
     RDKit          3D

 50 52  0  0  0  0  0  0  0  0999 V2000
   -3.3789   -7.6756   22.3324 C   0  0  0  0  0  0  0  0  0  0  0  0
   -3.2879   -9.1635   22.6761 C   0  0  0  0  0  0  0  0  0  0  0  0
   -4.3275  -10.3413   22.1226 C   0  0  0  0  0  0  0  0  0  0  0  0
   -3.0361  -10.8689   20.8644 C   0  0  0  0  0  0  0  0  0  0  0  0
   -2.6946   -9.9039   19.7689 N   0  0  0  0  0  0  0  0  0  0  0  0
   -2.2972  -10.1295   18.3993 C   0  0  0  0  0  0  0  0  0  0  0  0
   -2.0635  -11.1433   17.8146 O   0  0  0  0  0  0  0  0  0  0  0  0
   -2.2764   -8.8817   17.5730 C   0  0  0  0  0  0  0  0  0  0  0  0
   -2.6076   -8.7607   16.1842 C   0  0  0  0  0  0  0  0  0  0  0  0
   -2.5767   -7.5067   15.7168 N   0  0  0  0  0  0  0  0  0  0  0  0
   -2.1567   -6.8083   16.7790 N   0  0  0  0  0  0  0  0  0  0  0  0
   -1.9473   -7.5769   17.8966 C   0  0  0  0  0  0  0  0  0  0  0  0
   -5.7976  -11.4037   23.1692 N   0  0  0  0  0  0  0  0  0  0  0  0
   -6.6619  -11.2682   24.5293 C   0  0  0  0  0  0  0  0  0  0  0  0
   -6.8215  -11.7755   26.1886 C   0  0  0  0  0  0  0  0  0  0  0  0
   -7.1520  -10.8558   27.2607 C   0  0  0  0  0  0  0  0  0  0  0  0
   -7.4179  -11.5803   28.3894 C   0  0  0  0  0  0  0  0  0  0  0  0
   -7.3559  -12.8679   27.9879 N   0  0  0  0  0  0  0  0  0  0  0  0
   -7.9648  -13.9429   28.7219 C   0  0  0  0  0  0  0  0  0  0  0  0
   -7.0211  -14.7209   29.6191 C   0  0  0  0  0  0  0  0  0  0  0  0
   -7.8640  -15.9228   29.9822 C   0  0  0  0  0  0  0  0  0  0  0  0
   -8.6435  -16.2495   28.7059 C   0  0  0  0  0  0  0  0  0  0  0  0
   -8.6741  -14.9883   27.8722 C   0  0  0  0  0  0  0  0  0  0  0  0
   -6.8858  -13.0195   26.7315 N   0  0  0  0  0  0  0  0  0  0  0  0
   -2.6787   -7.1303   22.9781 H   0  0  0  0  0  0  0  0  0  0  0  0
   -4.3547   -7.2438   22.5313 H   0  0  0  0  0  0  0  0  0  0  0  0
   -3.0336   -7.4883   21.3223 H   0  0  0  0  0  0  0  0  0  0  0  0
   -2.2565   -9.4229   22.4119 H   0  0  0  0  0  0  0  0  0  0  0  0
   -3.1879   -9.2494   23.7550 H   0  0  0  0  0  0  0  0  0  0  0  0
   -4.7460  -10.6795   21.1698 H   0  0  0  0  0  0  0  0  0  0  0  0
   -3.3950  -11.7537   20.3257 H   0  0  0  0  0  0  0  0  0  0  0  0
   -2.0813  -11.1172   21.3153 H   0  0  0  0  0  0  0  0  0  0  0  0
   -2.7250   -8.9124   19.9429 H   0  0  0  0  0  0  0  0  0  0  0  0
   -2.8889   -9.5478   15.5055 H   0  0  0  0  0  0  0  0  0  0  0  0
   -2.0194   -5.8081   16.6757 H   0  0  0  0  0  0  0  0  0  0  0  0
   -1.5952   -7.1248   18.8123 H   0  0  0  0  0  0  0  0  0  0  0  0
   -5.6624  -12.3793   22.9226 H   0  0  0  0  0  0  0  0  0  0  0  0
   -7.4811  -10.9371   23.8939 H   0  0  0  0  0  0  0  0  0  0  0  0
   -6.8135  -10.3101   24.9572 H   0  0  0  0  0  0  0  0  0  0  0  0
   -7.2269   -9.7811   27.2089 H   0  0  0  0  0  0  0  0  0  0  0  0
   -7.7308  -11.2823   29.3802 H   0  0  0  0  0  0  0  0  0  0  0  0
   -8.7314  -13.4823   29.3640 H   0  0  0  0  0  0  0  0  0  0  0  0
   -6.1229  -15.0462   29.0935 H   0  0  0  0  0  0  0  0  0  0  0  0
   -6.7092  -14.1506   30.4996 H   0  0  0  0  0  0  0  0  0  0  0  0
   -7.2419  -16.7532   30.3263 H   0  0  0  0  0  0  0  0  0  0  0  0
   -8.5626  -15.6674   30.7880 H   0  0  0  0  0  0  0  0  0  0  0  0
   -9.6637  -16.5771   28.9305 H   0  0  0  0  0  0  0  0  0  0  0  0
   -8.1474  -17.0473   28.1416 H   0  0  0  0  0  0  0  0  0  0  0  0
   -8.1859  -15.1775   26.9111 H   0  0  0  0  0  0  0  0  0  0  0  0
   -9.7036  -14.6814   27.6643 H   0  0  0  0  0  0  0  0  0  0  0  0
  1  2  1  0
  2  3  1  0
  3  4  1  0
  4  5  1  0
  5  6  1  0
  6  7  2  0
  6  8  1  0
  8  9  1  0
  9 10  2  0
 10 11  1  0
 11 12  1  0
  3 13  1  0
 13 14  1  0
 14 15  1  0
 15 16  1  0
 16 17  2  0
 17 18  1  0
 18 19  1  0
 19 20  1  0
 20 21  1  0
 21 22  1  0
 22 23  1  0
 18 24  1  0
 12  8  2  0
 24 15  2  0
 23 19  1  0
  1 25  1  0
  1 26  1  0
  1 27  1  0
  2 28  1  0
  2 29  1  0
  3 30  1  0
  4 31  1  0
  4 32  1  0
  5 33  1  0
  9 34  1  0
 11 35  1  0
 12 36  1  0
 13 37  1  0
 14 38  1  0
 14 39  1  0
 16 40  1  0
 17 41  1  0
 19 42  1  0
 20 43  1  0
 20 44  1  0
 21 45  1  0
 21 46  1  0
 22 47  1  0
 22 48  1  0
 23 49  1  0
 23 50  1  0
M  END
>  <Energy>  (294) 
403.50859408750239

>  <compound_id>  (294) 
28402

>  <target_id>  (294) 
1

>  <reference_id>  (294) 
123

>  <inspiration_ids>  (294) 
[123, 99]

>  <energy_score>  (294) 
327.3724879218471

>  <distance_score>  (294) 
14.699126754473635

>  <path>  (294) 
/opt/xchem-fragalysis-2/maxwin/BulkDock/SCRATCH/511015/C28402-P123/C28402-P123.minimised.mol

>  <scratch_subdir>  (294) 
/opt/xchem-fragalysis-2/maxwin/BulkDock/SCRATCH/511015/C28402-P123

>  <fragmenstein_runtime>  (294) 
34.55003237724304

>  <fragmenstein_outcome>  (294) 
too moved

>  <fragmenstein_mode>  (294) 
expansion

>  <fragmenstein_error>  (294) 


$$$$
C28402-P99
     RDKit          3D

 50 52  0  0  0  0  0  0  0  0999 V2000
   -9.5412   -4.9781   17.3823 C   0  0  0  0  0  0  0  0  0  0  0  0
  -10.1232   -5.6743   18.6186 C   0  0  0  0  0  0  0  0  0  0  0  0
  -11.6286   -5.4242   18.9813 C   0  0  0  0  0  0  0  0  0  0  0  0
  -12.6053   -5.6318   17.7970 C   0  0  0  0  0  0  0  0  0  0  0  0
  -12.4799   -4.5857   16.7994 N   0  0  0  0  0  0  0  0  0  0  0  0
  -12.9173   -3.2262   16.8076 C   0  0  0  0  0  0  0  0  0  0  0  0
  -13.5682   -2.6219   17.6047 O   0  0  0  0  0  0  0  0  0  0  0  0
  -12.3852   -2.4949   15.6535 C   0  0  0  0  0  0  0  0  0  0  0  0
  -11.0926   -2.5105   15.0740 C   0  0  0  0  0  0  0  0  0  0  0  0
  -10.9910   -1.7075   14.0173 N   0  0  0  0  0  0  0  0  0  0  0  0
  -12.1984   -1.1330   13.9297 N   0  0  0  0  0  0  0  0  0  0  0  0
  -13.0634   -1.5611   14.8910 C   0  0  0  0  0  0  0  0  0  0  0  0
  -12.0616   -6.0752   20.3070 N   0  0  0  0  0  0  0  0  0  0  0  0
  -12.6610   -7.4605   20.2656 C   0  0  0  0  0  0  0  0  0  0  0  0
  -12.9565   -8.1684   21.6623 C   0  0  0  0  0  0  0  0  0  0  0  0
  -12.5476   -7.8469   22.9914 C   0  0  0  0  0  0  0  0  0  0  0  0
  -12.9879   -8.8675   23.8083 C   0  0  0  0  0  0  0  0  0  0  0  0
  -13.6980   -9.6991   22.9989 N   0  0  0  0  0  0  0  0  0  0  0  0
  -14.4435  -10.8877   23.3813 C   0  0  0  0  0  0  0  0  0  0  0  0
  -13.5424  -12.0043   23.9353 C   0  0  0  0  0  0  0  0  0  0  0  0
  -14.2725  -12.5411   25.1587 C   0  0  0  0  0  0  0  0  0  0  0  0
  -14.9875  -11.3214   25.7120 C   0  0  0  0  0  0  0  0  0  0  0  0
  -15.5047  -10.6208   24.4626 C   0  0  0  0  0  0  0  0  0  0  0  0
  -13.7182   -9.2852   21.7093 N   0  0  0  0  0  0  0  0  0  0  0  0
   -9.7322   -3.9036   17.4260 H   0  0  0  0  0  0  0  0  0  0  0  0
   -9.9409   -5.4016   16.4585 H   0  0  0  0  0  0  0  0  0  0  0  0
   -8.4558   -5.1235   17.3571 H   0  0  0  0  0  0  0  0  0  0  0  0
   -9.9569   -6.7477   18.5300 H   0  0  0  0  0  0  0  0  0  0  0  0
   -9.5198   -5.3437   19.4736 H   0  0  0  0  0  0  0  0  0  0  0  0
  -11.6649   -4.3525   19.2260 H   0  0  0  0  0  0  0  0  0  0  0  0
  -12.4459   -6.5986   17.3099 H   0  0  0  0  0  0  0  0  0  0  0  0
  -13.6379   -5.5807   18.1586 H   0  0  0  0  0  0  0  0  0  0  0  0
  -11.8745   -4.7322   16.0022 H   0  0  0  0  0  0  0  0  0  0  0  0
  -10.2184   -3.0744   15.3647 H   0  0  0  0  0  0  0  0  0  0  0  0
  -12.3558   -0.4477   13.1968 H   0  0  0  0  0  0  0  0  0  0  0  0
  -14.0712   -1.1762   14.9599 H   0  0  0  0  0  0  0  0  0  0  0  0
  -12.7948   -5.4809   20.7024 H   0  0  0  0  0  0  0  0  0  0  0  0
  -13.6186   -7.4125   19.7337 H   0  0  0  0  0  0  0  0  0  0  0  0
  -11.9941   -8.1180   19.7007 H   0  0  0  0  0  0  0  0  0  0  0  0
  -11.9827   -6.9810   23.3025 H   0  0  0  0  0  0  0  0  0  0  0  0
  -12.8830   -9.0356   24.8701 H   0  0  0  0  0  0  0  0  0  0  0  0
  -14.9512  -11.2431   22.4750 H   0  0  0  0  0  0  0  0  0  0  0  0
  -12.5549  -11.6277   24.2276 H   0  0  0  0  0  0  0  0  0  0  0  0
  -13.3794  -12.7948   23.1950 H   0  0  0  0  0  0  0  0  0  0  0  0
  -15.0010  -13.3035   24.8581 H   0  0  0  0  0  0  0  0  0  0  0  0
  -13.5892  -12.9903   25.8850 H   0  0  0  0  0  0  0  0  0  0  0  0
  -15.7943  -11.5888   26.4004 H   0  0  0  0  0  0  0  0  0  0  0  0
  -14.2811  -10.6761   26.2467 H   0  0  0  0  0  0  0  0  0  0  0  0
  -15.7054   -9.5597   24.6419 H   0  0  0  0  0  0  0  0  0  0  0  0
  -16.4512  -11.0855   24.1587 H   0  0  0  0  0  0  0  0  0  0  0  0
  1  2  1  0
  2  3  1  0
  3  4  1  0
  4  5  1  0
  5  6  1  0
  6  7  2  0
  6  8  1  0
  8  9  1  0
  9 10  2  0
 10 11  1  0
 11 12  1  0
  3 13  1  0
 13 14  1  0
 14 15  1  0
 15 16  1  0
 16 17  2  0
 17 18  1  0
 18 19  1  0
 19 20  1  0
 20 21  1  0
 21 22  1  0
 22 23  1  0
 18 24  1  0
 12  8  2  0
 24 15  2  0
 23 19  1  0
  1 25  1  0
  1 26  1  0
  1 27  1  0
  2 28  1  0
  2 29  1  0
  3 30  1  0
  4 31  1  0
  4 32  1  0
  5 33  1  0
  9 34  1  0
 11 35  1  0
 12 36  1  0
 13 37  1  0
 14 38  1  0
 14 39  1  0
 16 40  1  0
 17 41  1  0
 19 42  1  0
 20 43  1  0
 20 44  1  0
 21 45  1  0
 21 46  1  0
 22 47  1  0
 22 48  1  0
 23 49  1  0
 23 50  1  0
M  END
>  <Energy>  (295) 
58.109669281696782

>  <compound_id>  (295) 
28402

>  <target_id>  (295) 
1

>  <reference_id>  (295) 
99

>  <inspiration_ids>  (295) 
[123, 99]

>  <energy_score>  (295) 
-18.02643688395233

>  <distance_score>  (295) 
14.285673458098826

>  <path>  (295) 
/opt/xchem-fragalysis-2/maxwin/BulkDock/SCRATCH/511015/C28402-P99/C28402-P99.minimised.mol

>  <scratch_subdir>  (295) 
/opt/xchem-fragalysis-2/maxwin/BulkDock/SCRATCH/511015/C28402-P99

>  <fragmenstein_runtime>  (295) 
50.40523076057434

>  <fragmenstein_outcome>  (295) 
too moved

>  <fragmenstein_mode>  (295) 
expansion

>  <fragmenstein_error>  (295) 


$$$$
C28405-P123
     RDKit          3D

 48 50  0  0  0  0  0  0  0  0999 V2000
   -3.5694  -15.4222   17.0995 O   0  0  0  0  0  0  0  0  0  0  0  0
   -4.4734  -15.5733   16.3233 C   0  0  0  0  0  0  0  0  0  0  0  0
   -5.1012  -17.0265   16.1960 C   0  0  0  0  0  0  0  0  0  0  0  0
   -5.3738  -17.9325   17.4478 C   0  0  0  0  0  0  0  0  0  0  0  0
   -6.3491  -18.9793   17.5018 C   0  0  0  0  0  0  0  0  0  0  0  0
   -6.2598  -19.5423   18.7540 C   0  0  0  0  0  0  0  0  0  0  0  0
   -5.3216  -18.8124   19.4172 N   0  0  0  0  0  0  0  0  0  0  0  0
   -4.8937  -18.9609   20.8006 C   0  0  0  0  0  0  0  0  0  0  0  0
   -5.9818  -19.4807   21.7574 C   0  0  0  0  0  0  0  0  0  0  0  0
   -5.5743  -20.9080   22.0922 C   0  0  0  0  0  0  0  0  0  0  0  0
   -4.0583  -20.8377   22.1149 C   0  0  0  0  0  0  0  0  0  0  0  0
   -3.7216  -19.9496   20.9243 C   0  0  0  0  0  0  0  0  0  0  0  0
   -4.6931  -17.9155   18.6082 N   0  0  0  0  0  0  0  0  0  0  0  0
   -5.1443  -14.5999   15.4211 N   0  0  0  0  0  0  0  0  0  0  0  0
   -4.9706  -13.1265   15.2750 C   0  0  0  0  0  0  0  0  0  0  0  0
   -4.7999  -12.4723   13.8438 C   0  0  0  0  0  0  0  0  0  0  0  0
   -4.8317  -10.9050   13.8717 C   0  0  0  0  0  0  0  0  0  0  0  0
   -4.0244  -10.1773   12.7741 C   0  0  0  0  0  0  0  0  0  0  0  0
   -4.7621   -9.8053   11.5407 C   0  0  0  0  0  0  0  0  0  0  0  0
   -4.5308  -10.2419   10.2152 C   0  0  0  0  0  0  0  0  0  0  0  0
   -5.3429   -9.6619    9.3320 N   0  0  0  0  0  0  0  0  0  0  0  0
   -6.0608   -8.8173   10.0844 N   0  0  0  0  0  0  0  0  0  0  0  0
   -5.7628   -8.8713   11.4096 C   0  0  0  0  0  0  0  0  0  0  0  0
   -4.4244  -17.5886   15.5396 H   0  0  0  0  0  0  0  0  0  0  0  0
   -6.0596  -16.9431   15.6688 H   0  0  0  0  0  0  0  0  0  0  0  0
   -7.0240  -19.2822   16.7140 H   0  0  0  0  0  0  0  0  0  0  0  0
   -6.8044  -20.3533   19.2167 H   0  0  0  0  0  0  0  0  0  0  0  0
   -4.5836  -17.9626   21.1290 H   0  0  0  0  0  0  0  0  0  0  0  0
   -5.9811  -18.8886   22.6768 H   0  0  0  0  0  0  0  0  0  0  0  0
   -6.9944  -19.4251   21.3580 H   0  0  0  0  0  0  0  0  0  0  0  0
   -5.9898  -21.2438   23.0466 H   0  0  0  0  0  0  0  0  0  0  0  0
   -5.9125  -21.5962   21.3092 H   0  0  0  0  0  0  0  0  0  0  0  0
   -3.5939  -21.8251   22.0393 H   0  0  0  0  0  0  0  0  0  0  0  0
   -3.7138  -20.3703   23.0446 H   0  0  0  0  0  0  0  0  0  0  0  0
   -2.7694  -19.4295   21.0734 H   0  0  0  0  0  0  0  0  0  0  0  0
   -3.6174  -20.5667   20.0231 H   0  0  0  0  0  0  0  0  0  0  0  0
   -5.9251  -15.0538   14.9644 H   0  0  0  0  0  0  0  0  0  0  0  0
   -5.8594  -12.6909   15.7459 H   0  0  0  0  0  0  0  0  0  0  0  0
   -4.1091  -12.8511   15.8938 H   0  0  0  0  0  0  0  0  0  0  0  0
   -3.8469  -12.8228   13.4312 H   0  0  0  0  0  0  0  0  0  0  0  0
   -5.5905  -12.8386   13.1793 H   0  0  0  0  0  0  0  0  0  0  0  0
   -4.3929  -10.6004   14.8314 H   0  0  0  0  0  0  0  0  0  0  0  0
   -5.8746  -10.5673   13.8910 H   0  0  0  0  0  0  0  0  0  0  0  0
   -3.1367  -10.7684   12.5179 H   0  0  0  0  0  0  0  0  0  0  0  0
   -3.6407   -9.2437   13.2092 H   0  0  0  0  0  0  0  0  0  0  0  0
   -3.8002  -10.9580    9.8613 H   0  0  0  0  0  0  0  0  0  0  0  0
   -6.7529   -8.2422    9.6199 H   0  0  0  0  0  0  0  0  0  0  0  0
   -6.2590   -8.2474   12.1354 H   0  0  0  0  0  0  0  0  0  0  0  0
  1  2  2  0
  2  3  1  0
  3  4  1  0
  4  5  1  0
  5  6  2  0
  6  7  1  0
  7  8  1  0
  8  9  1  0
  9 10  1  0
 10 11  1  0
 11 12  1  0
  7 13  1  0
  2 14  1  0
 14 15  1  0
 15 16  1  0
 16 17  1  0
 17 18  1  0
 18 19  1  0
 19 20  1  0
 20 21  2  0
 21 22  1  0
 22 23  1  0
 13  4  2  0
 23 19  2  0
 12  8  1  0
  3 24  1  0
  3 25  1  0
  5 26  1  0
  6 27  1  0
  8 28  1  0
  9 29  1  0
  9 30  1  0
 10 31  1  0
 10 32  1  0
 11 33  1  0
 11 34  1  0
 12 35  1  0
 12 36  1  0
 14 37  1  0
 15 38  1  0
 15 39  1  0
 16 40  1  0
 16 41  1  0
 17 42  1  0
 17 43  1  0
 18 44  1  0
 18 45  1  0
 20 46  1  0
 22 47  1  0
 23 48  1  0
M  END
>  <Energy>  (296) 
55.026610696403509

>  <compound_id>  (296) 
28405

>  <target_id>  (296) 
1

>  <reference_id>  (296) 
123

>  <inspiration_ids>  (296) 
[123, 99]

>  <energy_score>  (296) 
-17.17167074235067

>  <distance_score>  (296) 
13.355765043666997

>  <path>  (296) 
/opt/xchem-fragalysis-2/maxwin/BulkDock/SCRATCH/511015/C28405-P123/C28405-P123.minimised.mol

>  <scratch_subdir>  (296) 
/opt/xchem-fragalysis-2/maxwin/BulkDock/SCRATCH/511015/C28405-P123

>  <fragmenstein_runtime>  (296) 
33.902347564697266

>  <fragmenstein_outcome>  (296) 
too moved

>  <fragmenstein_mode>  (296) 
expansion

>  <fragmenstein_error>  (296) 


$$$$
C28405-P99
     RDKit          3D

 48 50  0  0  0  0  0  0  0  0999 V2000
   -8.9099  -16.1730   19.9881 O   0  0  0  0  0  0  0  0  0  0  0  0
   -8.1658  -15.6266   20.6991 C   0  0  0  0  0  0  0  0  0  0  0  0
   -7.8231  -16.7048   22.6209 C   0  0  0  0  0  0  0  0  0  0  0  0
   -8.5520  -16.2518   24.6948 C   0  0  0  0  0  0  0  0  0  0  0  0
   -8.2172  -15.6142   26.0630 C   0  0  0  0  0  0  0  0  0  0  0  0
   -8.3996  -16.4129   27.3262 C   0  0  0  0  0  0  0  0  0  0  0  0
   -8.8277  -17.7338   26.9891 N   0  0  0  0  0  0  0  0  0  0  0  0
   -8.1735  -19.4791   27.3647 C   0  0  0  0  0  0  0  0  0  0  0  0
   -8.7208  -21.1307   26.7761 C   0  0  0  0  0  0  0  0  0  0  0  0
   -8.0070  -21.6458   25.4782 C   0  0  0  0  0  0  0  0  0  0  0  0
   -6.6308  -21.0203   25.4787 C   0  0  0  0  0  0  0  0  0  0  0  0
   -6.5475  -20.2745   26.8172 C   0  0  0  0  0  0  0  0  0  0  0  0
   -9.6117  -17.0888   25.6183 N   0  0  0  0  0  0  0  0  0  0  0  0
   -7.6832  -13.8623   19.9396 N   0  0  0  0  0  0  0  0  0  0  0  0
   -8.0401  -13.1047   18.4876 C   0  0  0  0  0  0  0  0  0  0  0  0
   -8.4641  -11.5535   17.9278 C   0  0  0  0  0  0  0  0  0  0  0  0
   -7.7415  -11.1133   16.5596 C   0  0  0  0  0  0  0  0  0  0  0  0
   -8.0977   -9.6921   16.0308 C   0  0  0  0  0  0  0  0  0  0  0  0
   -7.3070   -9.2504   14.8268 C   0  0  0  0  0  0  0  0  0  0  0  0
   -6.4044   -8.1603   14.7189 C   0  0  0  0  0  0  0  0  0  0  0  0
   -5.8974   -8.0125   13.4916 N   0  0  0  0  0  0  0  0  0  0  0  0
   -6.4677   -9.0130   12.7953 N   0  0  0  0  0  0  0  0  0  0  0  0
   -7.3109   -9.7784   13.5524 C   0  0  0  0  0  0  0  0  0  0  0  0
   -8.0263  -17.7506   22.2062 H   0  0  0  0  0  0  0  0  0  0  0  0
   -6.9500  -17.3620   22.9152 H   0  0  0  0  0  0  0  0  0  0  0  0
   -7.7553  -14.6513   26.1274 H   0  0  0  0  0  0  0  0  0  0  0  0
   -8.0891  -16.1810   28.3343 H   0  0  0  0  0  0  0  0  0  0  0  0
   -7.8927  -19.2786   28.3895 H   0  0  0  0  0  0  0  0  0  0  0  0
   -9.7823  -21.3776   26.7617 H   0  0  0  0  0  0  0  0  0  0  0  0
   -8.3075  -21.9113   27.4142 H   0  0  0  0  0  0  0  0  0  0  0  0
   -7.9298  -22.7398   25.5147 H   0  0  0  0  0  0  0  0  0  0  0  0
   -8.5473  -21.4344   24.5497 H   0  0  0  0  0  0  0  0  0  0  0  0
   -5.8562  -21.7949   25.4258 H   0  0  0  0  0  0  0  0  0  0  0  0
   -6.4682  -20.3806   24.6074 H   0  0  0  0  0  0  0  0  0  0  0  0
   -5.6047  -19.7220   26.9729 H   0  0  0  0  0  0  0  0  0  0  0  0
   -6.3774  -21.1040   27.4459 H   0  0  0  0  0  0  0  0  0  0  0  0
   -7.0145  -13.4817   20.4792 H   0  0  0  0  0  0  0  0  0  0  0  0
   -7.0232  -12.6544   18.5861 H   0  0  0  0  0  0  0  0  0  0  0  0
   -7.7712  -13.6203   17.5853 H   0  0  0  0  0  0  0  0  0  0  0  0
   -8.1655  -10.7837   18.6310 H   0  0  0  0  0  0  0  0  0  0  0  0
   -9.5495  -11.5244   17.7962 H   0  0  0  0  0  0  0  0  0  0  0  0
   -6.6583  -11.1658   16.7284 H   0  0  0  0  0  0  0  0  0  0  0  0
   -7.9686  -11.8519   15.7837 H   0  0  0  0  0  0  0  0  0  0  0  0
   -7.9444   -8.9698   16.8420 H   0  0  0  0  0  0  0  0  0  0  0  0
   -9.1658   -9.6643   15.7825 H   0  0  0  0  0  0  0  0  0  0  0  0
   -6.1064   -7.4638   15.4922 H   0  0  0  0  0  0  0  0  0  0  0  0
   -6.2508   -9.1020   11.8072 H   0  0  0  0  0  0  0  0  0  0  0  0
   -7.8424  -10.6153   13.1256 H   0  0  0  0  0  0  0  0  0  0  0  0
  1  2  2  0
  2  3  1  0
  3  4  1  0
  4  5  1  0
  5  6  2  0
  6  7  1  0
  7  8  1  0
  8  9  1  0
  9 10  1  0
 10 11  1  0
 11 12  1  0
  7 13  1  0
  2 14  1  0
 14 15  1  0
 15 16  1  0
 16 17  1  0
 17 18  1  0
 18 19  1  0
 19 20  1  0
 20 21  2  0
 21 22  1  0
 22 23  1  0
 13  4  2  0
 23 19  2  0
 12  8  1  0
  3 24  1  0
  3 25  1  0
  5 26  1  0
  6 27  1  0
  8 28  1  0
  9 29  1  0
  9 30  1  0
 10 31  1  0
 10 32  1  0
 11 33  1  0
 11 34  1  0
 12 35  1  0
 12 36  1  0
 14 37  1  0
 15 38  1  0
 15 39  1  0
 16 40  1  0
 16 41  1  0
 17 42  1  0
 17 43  1  0
 18 44  1  0
 18 45  1  0
 20 46  1  0
 22 47  1  0
 23 48  1  0
M  END
>  <Energy>  (297) 
957.95867279091021

>  <compound_id>  (297) 
28405

>  <target_id>  (297) 
1

>  <reference_id>  (297) 
99

>  <inspiration_ids>  (297) 
[123, 99]

>  <energy_score>  (297) 
885.7603913521522

>  <distance_score>  (297) 
12.582301196397388

>  <path>  (297) 
/opt/xchem-fragalysis-2/maxwin/BulkDock/SCRATCH/511015/C28405-P99/C28405-P99.minimised.mol

>  <scratch_subdir>  (297) 
/opt/xchem-fragalysis-2/maxwin/BulkDock/SCRATCH/511015/C28405-P99

>  <fragmenstein_runtime>  (297) 
36.02016806602478

>  <fragmenstein_outcome>  (297) 
too moved

>  <fragmenstein_mode>  (297) 
expansion

>  <fragmenstein_error>  (297) 


$$$$
C28406-P123
     RDKit          3D

 35 37  0  0  0  0  0  0  0  0999 V2000
  -12.4201   -8.4922   21.7731 O   0  0  0  0  0  0  0  0  0  0  0  0
  -11.6018   -7.6436   21.7161 C   0  0  0  0  0  0  0  0  0  0  0  0
  -11.3772   -6.5542   20.6631 N   0  0  0  0  0  0  0  0  0  0  0  0
  -12.0064   -6.3259   19.4555 C   0  0  0  0  0  0  0  0  0  0  0  0
  -11.6130   -5.3644   18.4759 C   0  0  0  0  0  0  0  0  0  0  0  0
  -12.3139   -5.4476   17.3412 N   0  0  0  0  0  0  0  0  0  0  0  0
  -13.1718   -6.4522   17.5897 N   0  0  0  0  0  0  0  0  0  0  0  0
  -13.0269   -7.0000   18.8401 C   0  0  0  0  0  0  0  0  0  0  0  0
  -10.4171   -7.3777   22.5956 N   0  0  0  0  0  0  0  0  0  0  0  0
   -9.8933   -8.1017   23.6629 C   0  0  0  0  0  0  0  0  0  0  0  0
   -8.6371   -7.6720   24.0825 C   0  0  0  0  0  0  0  0  0  0  0  0
   -8.1583   -8.6461   24.9424 C   0  0  0  0  0  0  0  0  0  0  0  0
   -9.0430   -9.6116   25.1468 N   0  0  0  0  0  0  0  0  0  0  0  0
  -10.1444   -9.2733   24.4099 N   0  0  0  0  0  0  0  0  0  0  0  0
  -11.2707  -10.2212   24.5721 C   0  0  0  0  0  0  0  0  0  0  0  0
  -11.7374  -10.3745   26.0523 C   0  0  0  0  0  0  0  0  0  0  0  0
  -11.2193  -11.7258   26.5533 C   0  0  0  0  0  0  0  0  0  0  0  0
  -11.3483  -12.6096   25.3329 C   0  0  0  0  0  0  0  0  0  0  0  0
  -10.9380  -11.6964   24.1711 C   0  0  0  0  0  0  0  0  0  0  0  0
  -10.6407   -5.9456   20.9638 H   0  0  0  0  0  0  0  0  0  0  0  0
  -10.8223   -4.6284   18.5389 H   0  0  0  0  0  0  0  0  0  0  0  0
  -13.8203   -6.7296   16.8597 H   0  0  0  0  0  0  0  0  0  0  0  0
  -13.6359   -7.8364   19.1530 H   0  0  0  0  0  0  0  0  0  0  0  0
   -9.8828   -6.6198   22.2129 H   0  0  0  0  0  0  0  0  0  0  0  0
   -8.1011   -6.7942   23.7500 H   0  0  0  0  0  0  0  0  0  0  0  0
   -7.2029   -8.6986   25.4484 H   0  0  0  0  0  0  0  0  0  0  0  0
  -12.0875   -9.8205   23.9651 H   0  0  0  0  0  0  0  0  0  0  0  0
  -11.4124   -9.5503   26.6956 H   0  0  0  0  0  0  0  0  0  0  0  0
  -12.8349  -10.3898   26.0705 H   0  0  0  0  0  0  0  0  0  0  0  0
  -10.1703  -11.6424   26.8583 H   0  0  0  0  0  0  0  0  0  0  0  0
  -11.7962  -12.0995   27.4039 H   0  0  0  0  0  0  0  0  0  0  0  0
  -12.3898  -12.9271   25.2041 H   0  0  0  0  0  0  0  0  0  0  0  0
  -10.7245  -13.5059   25.3934 H   0  0  0  0  0  0  0  0  0  0  0  0
  -11.4895  -11.9848   23.2721 H   0  0  0  0  0  0  0  0  0  0  0  0
   -9.8723  -11.8254   23.9499 H   0  0  0  0  0  0  0  0  0  0  0  0
  1  2  2  0
  2  3  1  0
  3  4  1  0
  4  5  1  0
  5  6  2  0
  6  7  1  0
  7  8  1  0
  2  9  1  0
  9 10  1  0
 10 11  2  0
 11 12  1  0
 12 13  2  0
 13 14  1  0
 14 15  1  0
 15 16  1  0
 16 17  1  0
 17 18  1  0
 18 19  1  0
  8  4  2  0
 14 10  1  0
 19 15  1  0
  3 20  1  0
  5 21  1  0
  7 22  1  0
  8 23  1  0
  9 24  1  0
 11 25  1  0
 12 26  1  0
 15 27  1  0
 16 28  1  0
 16 29  1  0
 17 30  1  0
 17 31  1  0
 18 32  1  0
 18 33  1  0
 19 34  1  0
 19 35  1  0
M  END
>  <Energy>  (298) 
32.581878173092562

>  <compound_id>  (298) 
28406

>  <target_id>  (298) 
1

>  <reference_id>  (298) 
123

>  <inspiration_ids>  (298) 
[123, 99]

>  <energy_score>  (298) 
-15.467289058050767

>  <distance_score>  (298) 
15.241454487820645

>  <path>  (298) 
/opt/xchem-fragalysis-2/maxwin/BulkDock/SCRATCH/511015/C28406-P123/C28406-P123.minimised.mol

>  <scratch_subdir>  (298) 
/opt/xchem-fragalysis-2/maxwin/BulkDock/SCRATCH/511015/C28406-P123

>  <fragmenstein_runtime>  (298) 
34.716689348220825

>  <fragmenstein_outcome>  (298) 
too moved

>  <fragmenstein_mode>  (298) 
expansion

>  <fragmenstein_error>  (298) 


$$$$
C28406-P99
     RDKit          3D

 35 37  0  0  0  0  0  0  0  0999 V2000
  -15.1290  -12.3075   18.9017 O   0  0  0  0  0  0  0  0  0  0  0  0
  -15.1720  -11.1386   19.0506 C   0  0  0  0  0  0  0  0  0  0  0  0
  -15.1676  -10.0081   18.0173 N   0  0  0  0  0  0  0  0  0  0  0  0
  -15.0197  -10.0435   16.6453 C   0  0  0  0  0  0  0  0  0  0  0  0
  -14.9179  -11.0766   15.6948 C   0  0  0  0  0  0  0  0  0  0  0  0
  -14.7642  -10.6147   14.4422 N   0  0  0  0  0  0  0  0  0  0  0  0
  -14.6651   -9.2905   14.5978 N   0  0  0  0  0  0  0  0  0  0  0  0
  -14.8458   -8.8934   15.8917 C   0  0  0  0  0  0  0  0  0  0  0  0
  -15.1446  -10.3209   20.3019 N   0  0  0  0  0  0  0  0  0  0  0  0
  -14.9672  -10.6925   21.6256 C   0  0  0  0  0  0  0  0  0  0  0  0
  -14.6449   -9.6420   22.4777 C   0  0  0  0  0  0  0  0  0  0  0  0
  -14.1654  -10.2226   23.6410 C   0  0  0  0  0  0  0  0  0  0  0  0
  -14.2560  -11.5456   23.6164 N   0  0  0  0  0  0  0  0  0  0  0  0
  -14.7901  -11.8582   22.3952 N   0  0  0  0  0  0  0  0  0  0  0  0
  -14.9728  -13.3084   22.1802 C   0  0  0  0  0  0  0  0  0  0  0  0
  -15.9654  -13.9571   23.1967 C   0  0  0  0  0  0  0  0  0  0  0  0
  -15.2747  -15.1784   23.8168 C   0  0  0  0  0  0  0  0  0  0  0  0
  -13.8018  -14.8399   23.7446 C   0  0  0  0  0  0  0  0  0  0  0  0
  -13.6765  -14.1478   22.3849 C   0  0  0  0  0  0  0  0  0  0  0  0
  -15.1310   -9.1263   18.4876 H   0  0  0  0  0  0  0  0  0  0  0  0
  -14.9530  -12.1469   15.8620 H   0  0  0  0  0  0  0  0  0  0  0  0
  -14.4941   -8.7212   13.7758 H   0  0  0  0  0  0  0  0  0  0  0  0
  -14.8133   -7.8479   16.1577 H   0  0  0  0  0  0  0  0  0  0  0  0
  -15.2814   -9.3552   20.0703 H   0  0  0  0  0  0  0  0  0  0  0  0
  -14.6559   -8.5866   22.2456 H   0  0  0  0  0  0  0  0  0  0  0  0
  -13.7654   -9.7438   24.5255 H   0  0  0  0  0  0  0  0  0  0  0  0
  -15.3418  -13.4190   21.1574 H   0  0  0  0  0  0  0  0  0  0  0  0
  -16.8905  -14.2573   22.6920 H   0  0  0  0  0  0  0  0  0  0  0  0
  -16.2526  -13.2530   23.9865 H   0  0  0  0  0  0  0  0  0  0  0  0
  -15.6133  -15.3704   24.8389 H   0  0  0  0  0  0  0  0  0  0  0  0
  -15.4879  -16.0690   23.2139 H   0  0  0  0  0  0  0  0  0  0  0  0
  -13.5255  -14.1515   24.5509 H   0  0  0  0  0  0  0  0  0  0  0  0
  -13.1650  -15.7261   23.8164 H   0  0  0  0  0  0  0  0  0  0  0  0
  -12.7574  -13.5587   22.3198 H   0  0  0  0  0  0  0  0  0  0  0  0
  -13.6319  -14.9161   21.6026 H   0  0  0  0  0  0  0  0  0  0  0  0
  1  2  2  0
  2  3  1  0
  3  4  1  0
  4  5  1  0
  5  6  2  0
  6  7  1  0
  7  8  1  0
  2  9  1  0
  9 10  1  0
 10 11  2  0
 11 12  1  0
 12 13  2  0
 13 14  1  0
 14 15  1  0
 15 16  1  0
 16 17  1  0
 17 18  1  0
 18 19  1  0
  8  4  2  0
 14 10  1  0
 19 15  1  0
  3 20  1  0
  5 21  1  0
  7 22  1  0
  8 23  1  0
  9 24  1  0
 11 25  1  0
 12 26  1  0
 15 27  1  0
 16 28  1  0
 16 29  1  0
 17 30  1  0
 17 31  1  0
 18 32  1  0
 18 33  1  0
 19 34  1  0
 19 35  1  0
M  END
>  <Energy>  (299) 
30.511261027885741

>  <compound_id>  (299) 
28406

>  <target_id>  (299) 
1

>  <reference_id>  (299) 
99

>  <inspiration_ids>  (299) 
[123, 99]

>  <energy_score>  (299) 
-17.537906203253897

>  <distance_score>  (299) 
15.618903817635985

>  <path>  (299) 
/opt/xchem-fragalysis-2/maxwin/BulkDock/SCRATCH/511015/C28406-P99/C28406-P99.minimised.mol

>  <scratch_subdir>  (299) 
/opt/xchem-fragalysis-2/maxwin/BulkDock/SCRATCH/511015/C28406-P99

>  <fragmenstein_runtime>  (299) 
35.76584815979004

>  <fragmenstein_outcome>  (299) 
too moved

>  <fragmenstein_mode>  (299) 
expansion

>  <fragmenstein_error>  (299) 


$$$$
C28407-P123
     RDKit          3D

 36 38  0  0  0  0  0  0  0  0999 V2000
  -10.6573   -4.9840   19.6802 O   0  0  0  0  0  0  0  0  0  0  0  0
  -11.5850   -5.5150   19.1435 C   0  0  0  0  0  0  0  0  0  0  0  0
  -12.6892   -6.2453   19.6935 N   0  0  0  0  0  0  0  0  0  0  0  0
  -13.0821   -6.4889   21.0813 C   0  0  0  0  0  0  0  0  0  0  0  0
  -13.5413   -7.8944   21.3707 C   0  0  0  0  0  0  0  0  0  0  0  0
  -14.4508   -8.6244   20.5782 C   0  0  0  0  0  0  0  0  0  0  0  0
  -14.7770   -9.7227   21.3357 C   0  0  0  0  0  0  0  0  0  0  0  0
  -14.0232   -9.6885   22.4992 N   0  0  0  0  0  0  0  0  0  0  0  0
  -13.9165  -10.8167   23.4532 C   0  0  0  0  0  0  0  0  0  0  0  0
  -12.5565  -11.1530   24.0981 C   0  0  0  0  0  0  0  0  0  0  0  0
  -12.8792  -12.1879   25.1885 C   0  0  0  0  0  0  0  0  0  0  0  0
  -14.3444  -11.9586   25.5575 C   0  0  0  0  0  0  0  0  0  0  0  0
  -14.8188  -10.7787   24.6928 C   0  0  0  0  0  0  0  0  0  0  0  0
  -13.2706   -8.5460   22.5393 N   0  0  0  0  0  0  0  0  0  0  0  0
  -11.6406   -5.3608   17.6576 C   0  0  0  0  0  0  0  0  0  0  0  0
  -12.5787   -5.7413   16.6623 C   0  0  0  0  0  0  0  0  0  0  0  0
  -12.2196   -5.4050   15.4174 N   0  0  0  0  0  0  0  0  0  0  0  0
  -11.0333   -4.8019   15.5854 N   0  0  0  0  0  0  0  0  0  0  0  0
  -10.6626   -4.7255   16.8956 C   0  0  0  0  0  0  0  0  0  0  0  0
  -13.3282   -6.4817   18.9516 H   0  0  0  0  0  0  0  0  0  0  0  0
  -13.9211   -5.8097   21.2752 H   0  0  0  0  0  0  0  0  0  0  0  0
  -12.2756   -6.1778   21.7484 H   0  0  0  0  0  0  0  0  0  0  0  0
  -14.8707   -8.3610   19.6184 H   0  0  0  0  0  0  0  0  0  0  0  0
  -15.4493  -10.5471   21.1417 H   0  0  0  0  0  0  0  0  0  0  0  0
  -14.2220  -11.6970   22.8678 H   0  0  0  0  0  0  0  0  0  0  0  0
  -12.1158  -10.2566   24.5509 H   0  0  0  0  0  0  0  0  0  0  0  0
  -11.8344  -11.5517   23.3818 H   0  0  0  0  0  0  0  0  0  0  0  0
  -12.2160  -12.0715   26.0514 H   0  0  0  0  0  0  0  0  0  0  0  0
  -12.7457  -13.2042   24.8006 H   0  0  0  0  0  0  0  0  0  0  0  0
  -14.9308  -12.8554   25.3269 H   0  0  0  0  0  0  0  0  0  0  0  0
  -14.4708  -11.7449   26.6234 H   0  0  0  0  0  0  0  0  0  0  0  0
  -14.6824   -9.8344   25.2342 H   0  0  0  0  0  0  0  0  0  0  0  0
  -15.8798  -10.8638   24.4373 H   0  0  0  0  0  0  0  0  0  0  0  0
  -13.5170   -6.2655   16.7852 H   0  0  0  0  0  0  0  0  0  0  0  0
  -10.5324   -4.4694   14.7661 H   0  0  0  0  0  0  0  0  0  0  0  0
   -9.7329   -4.2557   17.1865 H   0  0  0  0  0  0  0  0  0  0  0  0
  1  2  2  0
  2  3  1  0
  3  4  1  0
  4  5  1  0
  5  6  1  0
  6  7  2  0
  7  8  1  0
  8  9  1  0
  9 10  1  0
 10 11  1  0
 11 12  1  0
 12 13  1  0
  8 14  1  0
  2 15  1  0
 15 16  1  0
 16 17  2  0
 17 18  1  0
 18 19  1  0
 14  5  2  0
 19 15  2  0
 13  9  1  0
  3 20  1  0
  4 21  1  0
  4 22  1  0
  6 23  1  0
  7 24  1  0
  9 25  1  0
 10 26  1  0
 10 27  1  0
 11 28  1  0
 11 29  1  0
 12 30  1  0
 12 31  1  0
 13 32  1  0
 13 33  1  0
 16 34  1  0
 18 35  1  0
 19 36  1  0
M  END
>  <Energy>  (300) 
23.717839927046136

>  <compound_id>  (300) 
28407

>  <target_id>  (300) 
1

>  <reference_id>  (300) 
123

>  <inspiration_ids>  (300) 
[123, 99]

>  <energy_score>  (300) 
-10.518197171014833

>  <distance_score>  (300) 
14.712744406888513

>  <path>  (300) 
/opt/xchem-fragalysis-2/maxwin/BulkDock/SCRATCH/511015/C28407-P123/C28407-P123.minimised.mol

>  <scratch_subdir>  (300) 
/opt/xchem-fragalysis-2/maxwin/BulkDock/SCRATCH/511015/C28407-P123

>  <fragmenstein_runtime>  (300) 
24.02496576309204

>  <fragmenstein_outcome>  (300) 
too moved

>  <fragmenstein_mode>  (300) 
expansion

>  <fragmenstein_error>  (300) 


$$$$
C28407-P99
     RDKit          3D

 36 38  0  0  0  0  0  0  0  0999 V2000
   -5.3957  -16.9814   11.9007 O   0  0  0  0  0  0  0  0  0  0  0  0
   -6.4091  -16.5782   12.3866 C   0  0  0  0  0  0  0  0  0  0  0  0
   -7.2280  -17.1240   13.4205 N   0  0  0  0  0  0  0  0  0  0  0  0
   -7.1430  -18.3755   14.1351 C   0  0  0  0  0  0  0  0  0  0  0  0
   -6.7353  -18.2456   15.5767 C   0  0  0  0  0  0  0  0  0  0  0  0
   -5.5269  -17.7235   16.0887 C   0  0  0  0  0  0  0  0  0  0  0  0
   -5.4897  -18.1518   17.4004 C   0  0  0  0  0  0  0  0  0  0  0  0
   -6.6818  -18.7915   17.6712 N   0  0  0  0  0  0  0  0  0  0  0  0
   -7.0951  -19.5200   18.8867 C   0  0  0  0  0  0  0  0  0  0  0  0
   -8.4622  -19.1248   19.4782 C   0  0  0  0  0  0  0  0  0  0  0  0
   -8.5102  -19.7503   20.8803 C   0  0  0  0  0  0  0  0  0  0  0  0
   -7.0579  -19.9723   21.2886 C   0  0  0  0  0  0  0  0  0  0  0  0
   -6.2126  -19.3990   20.1439 C   0  0  0  0  0  0  0  0  0  0  0  0
   -7.4489  -18.8631   16.5480 N   0  0  0  0  0  0  0  0  0  0  0  0
   -6.9881  -15.3470   11.7999 C   0  0  0  0  0  0  0  0  0  0  0  0
   -6.5162  -14.6664   10.6407 C   0  0  0  0  0  0  0  0  0  0  0  0
   -7.2689  -13.6203   10.3005 N   0  0  0  0  0  0  0  0  0  0  0  0
   -8.2115  -13.5913   11.2526 N   0  0  0  0  0  0  0  0  0  0  0  0
   -8.0761  -14.5795   12.1835 C   0  0  0  0  0  0  0  0  0  0  0  0
   -8.0534  -16.5571   13.5182 H   0  0  0  0  0  0  0  0  0  0  0  0
   -6.4196  -19.0145   13.6162 H   0  0  0  0  0  0  0  0  0  0  0  0
   -8.1269  -18.8508   14.0574 H   0  0  0  0  0  0  0  0  0  0  0  0
   -4.7363  -17.2266   15.5452 H   0  0  0  0  0  0  0  0  0  0  0  0
   -4.7208  -18.0602   18.1531 H   0  0  0  0  0  0  0  0  0  0  0  0
   -7.1270  -20.5753   18.5811 H   0  0  0  0  0  0  0  0  0  0  0  0
   -9.2954  -19.4660   18.8552 H   0  0  0  0  0  0  0  0  0  0  0  0
   -8.5383  -18.0324   19.5553 H   0  0  0  0  0  0  0  0  0  0  0  0
   -9.0431  -20.7074   20.8538 H   0  0  0  0  0  0  0  0  0  0  0  0
   -9.0371  -19.0978   21.5835 H   0  0  0  0  0  0  0  0  0  0  0  0
   -6.8192  -19.4905   22.2418 H   0  0  0  0  0  0  0  0  0  0  0  0
   -6.8624  -21.0450   21.4000 H   0  0  0  0  0  0  0  0  0  0  0  0
   -5.9827  -18.3472   20.3513 H   0  0  0  0  0  0  0  0  0  0  0  0
   -5.2624  -19.9314   20.0349 H   0  0  0  0  0  0  0  0  0  0  0  0
   -5.6626  -14.9258   10.0260 H   0  0  0  0  0  0  0  0  0  0  0  0
   -8.9292  -12.8763   11.2116 H   0  0  0  0  0  0  0  0  0  0  0  0
   -8.7734  -14.6411   13.0066 H   0  0  0  0  0  0  0  0  0  0  0  0
  1  2  2  0
  2  3  1  0
  3  4  1  0
  4  5  1  0
  5  6  1  0
  6  7  2  0
  7  8  1  0
  8  9  1  0
  9 10  1  0
 10 11  1  0
 11 12  1  0
 12 13  1  0
  8 14  1  0
  2 15  1  0
 15 16  1  0
 16 17  2  0
 17 18  1  0
 18 19  1  0
 14  5  2  0
 19 15  2  0
 13  9  1  0
  3 20  1  0
  4 21  1  0
  4 22  1  0
  6 23  1  0
  7 24  1  0
  9 25  1  0
 10 26  1  0
 10 27  1  0
 11 28  1  0
 11 29  1  0
 12 30  1  0
 12 31  1  0
 13 32  1  0
 13 33  1  0
 16 34  1  0
 18 35  1  0
 19 36  1  0
M  END
>  <Energy>  (301) 
15.864006633099679

>  <compound_id>  (301) 
28407

>  <target_id>  (301) 
1

>  <reference_id>  (301) 
99

>  <inspiration_ids>  (301) 
[123, 99]

>  <energy_score>  (301) 
-18.37203046495756

>  <distance_score>  (301) 
15.1242101730519

>  <path>  (301) 
/opt/xchem-fragalysis-2/maxwin/BulkDock/SCRATCH/511015/C28407-P99/C28407-P99.minimised.mol

>  <scratch_subdir>  (301) 
/opt/xchem-fragalysis-2/maxwin/BulkDock/SCRATCH/511015/C28407-P99

>  <fragmenstein_runtime>  (301) 
23.211976766586304

>  <fragmenstein_outcome>  (301) 
too moved

>  <fragmenstein_mode>  (301) 
expansion

>  <fragmenstein_error>  (301) 


$$$$
C10262-P124
     RDKit          3D

 51 54  0  0  0  0  0  0  0  0999 V2000
    1.2300   -4.4618   11.6388 O   0  0  0  0  0  0  0  0  0  0  0  0
    1.7142   -5.5637   11.6777 C   0  0  0  0  0  0  0  0  0  0  0  0
    1.1109   -6.8937   11.3996 N   0  0  0  0  0  0  0  0  0  0  0  0
   -0.2534   -7.2692   10.8904 C   0  0  0  0  0  0  0  0  0  0  0  0
   -0.7026   -8.7838   11.0689 C   0  0  0  0  0  0  0  0  0  0  0  0
   -2.0131   -9.2672   10.3232 C   0  0  0  0  0  0  0  0  0  0  0  0
   -2.5857  -10.6208   10.7255 C   0  0  0  0  0  0  0  0  0  0  0  0
   -3.8573  -11.0028   10.7029 N   0  0  0  0  0  0  0  0  0  0  0  0
   -3.8725  -12.1465   11.4701 C   0  0  0  0  0  0  0  0  0  0  0  0
   -4.9324  -12.8835   12.0136 C   0  0  0  0  0  0  0  0  0  0  0  0
   -4.6197  -13.8618   12.9735 C   0  0  0  0  0  0  0  0  0  0  0  0
   -3.2934  -14.1762   13.2899 C   0  0  0  0  0  0  0  0  0  0  0  0
   -2.2273  -13.5425   12.6508 C   0  0  0  0  0  0  0  0  0  0  0  0
   -2.5774  -12.4932   11.8109 C   0  0  0  0  0  0  0  0  0  0  0  0
   -1.7402  -11.5452   11.2909 O   0  0  0  0  0  0  0  0  0  0  0  0
    3.3630   -5.6742   12.0020 C   0  0  0  0  0  0  0  0  0  0  0  0
    4.2610   -4.6886   11.2109 C   0  0  0  0  0  0  0  0  0  0  0  0
    4.0031   -3.3165   11.1025 C   0  0  0  0  0  0  0  0  0  0  0  0
    4.8934   -2.4691   10.4450 C   0  0  0  0  0  0  0  0  0  0  0  0
    6.0443   -3.0130    9.9095 C   0  0  0  0  0  0  0  0  0  0  0  0
    6.3553   -4.3233    9.9869 N   0  0  0  0  0  0  0  0  0  0  0  0
    5.4572   -5.1193   10.6237 C   0  0  0  0  0  0  0  0  0  0  0  0
    3.6708   -5.6736   13.4857 N   0  0  0  0  0  0  0  0  0  0  0  0
    3.6086   -4.3619   14.1609 C   0  0  0  0  0  0  0  0  0  0  0  0
    5.0388   -3.9630   14.5145 C   0  0  0  0  0  0  0  0  0  0  0  0
    5.6711   -5.2990   14.8209 C   0  0  0  0  0  0  0  0  0  0  0  0
    4.9929   -6.2443   13.8266 C   0  0  0  0  0  0  0  0  0  0  0  0
    1.7898   -7.6183   11.6121 H   0  0  0  0  0  0  0  0  0  0  0  0
   -0.2495   -7.0232    9.8236 H   0  0  0  0  0  0  0  0  0  0  0  0
   -0.9735   -6.6043   11.3781 H   0  0  0  0  0  0  0  0  0  0  0  0
   -0.8505   -8.9541   12.1400 H   0  0  0  0  0  0  0  0  0  0  0  0
    0.1207   -9.4314   10.7477 H   0  0  0  0  0  0  0  0  0  0  0  0
   -1.8503   -9.2433    9.2430 H   0  0  0  0  0  0  0  0  0  0  0  0
   -2.7922   -8.5219   10.5294 H   0  0  0  0  0  0  0  0  0  0  0  0
   -5.9568  -12.6097   11.7906 H   0  0  0  0  0  0  0  0  0  0  0  0
   -5.4113  -14.3788   13.5095 H   0  0  0  0  0  0  0  0  0  0  0  0
   -3.0845  -14.9331   14.0449 H   0  0  0  0  0  0  0  0  0  0  0  0
   -1.1950  -13.7590   12.8955 H   0  0  0  0  0  0  0  0  0  0  0  0
    3.6122   -6.6719   11.6266 H   0  0  0  0  0  0  0  0  0  0  0  0
    3.0961   -2.8844   11.5190 H   0  0  0  0  0  0  0  0  0  0  0  0
    4.6939   -1.4063   10.3584 H   0  0  0  0  0  0  0  0  0  0  0  0
    6.7649   -2.3853    9.3932 H   0  0  0  0  0  0  0  0  0  0  0  0
    5.7497   -6.1658   10.6481 H   0  0  0  0  0  0  0  0  0  0  0  0
    3.0506   -4.5116   15.0947 H   0  0  0  0  0  0  0  0  0  0  0  0
    3.0666   -3.5839   13.6209 H   0  0  0  0  0  0  0  0  0  0  0  0
    5.5394   -3.4910   13.6629 H   0  0  0  0  0  0  0  0  0  0  0  0
    5.0825   -3.2780   15.3660 H   0  0  0  0  0  0  0  0  0  0  0  0
    6.7583   -5.2836   14.7120 H   0  0  0  0  0  0  0  0  0  0  0  0
    5.4312   -5.6018   15.8472 H   0  0  0  0  0  0  0  0  0  0  0  0
    5.6488   -6.3579   12.9617 H   0  0  0  0  0  0  0  0  0  0  0  0
    4.8728   -7.2387   14.2682 H   0  0  0  0  0  0  0  0  0  0  0  0
  1  2  2  0
  2  3  1  0
  3  4  1  0
  4  5  1  0
  5  6  1  0
  6  7  1  0
  7  8  2  0
  8  9  1  0
  9 10  2  0
 10 11  1  0
 11 12  2  0
 12 13  1  0
 13 14  2  0
 14 15  1  0
  2 16  1  0
 16 17  1  0
 17 18  2  0
 18 19  1  0
 19 20  2  0
 20 21  1  0
 21 22  2  0
 16 23  1  0
 23 24  1  0
 24 25  1  0
 25 26  1  0
 26 27  1  0
 15  7  1  0
 22 17  1  0
 27 23  1  0
 14  9  1  0
  3 28  1  0
  4 29  1  0
  4 30  1  0
  5 31  1  0
  5 32  1  0
  6 33  1  0
  6 34  1  0
 10 35  1  0
 11 36  1  0
 12 37  1  0
 13 38  1  0
 16 39  1  0
 18 40  1  0
 19 41  1  0
 20 42  1  0
 22 43  1  0
 24 44  1  0
 24 45  1  0
 25 46  1  0
 25 47  1  0
 26 48  1  0
 26 49  1  0
 27 50  1  0
 27 51  1  0
M  END
>  <Energy>  (302) 
110.06813400971721

>  <compound_id>  (302) 
10262

>  <target_id>  (302) 
1

>  <reference_id>  (302) 
124

>  <inspiration_ids>  (302) 
[124, 2]

>  <energy_score>  (302) 
-13.112794442958176

>  <distance_score>  (302) 
12.87188215822273

>  <path>  (302) 
/opt/xchem-fragalysis-2/maxwin/BulkDock/SCRATCH/511015/C10262-P124/C10262-P124.minimised.mol

>  <scratch_subdir>  (302) 
/opt/xchem-fragalysis-2/maxwin/BulkDock/SCRATCH/511015/C10262-P124

>  <fragmenstein_runtime>  (302) 
38.584789991378784

>  <fragmenstein_outcome>  (302) 
too moved

>  <fragmenstein_mode>  (302) 
expansion

>  <fragmenstein_error>  (302) 


$$$$
C10262-P2
     RDKit          3D

 51 54  0  0  0  0  0  0  0  0999 V2000
    9.2446  -16.0240    6.8570 O   0  0  0  0  0  0  0  0  0  0  0  0
    8.6488  -15.5480    7.7948 C   0  0  0  0  0  0  0  0  0  0  0  0
    7.3666  -15.9799    8.4585 N   0  0  0  0  0  0  0  0  0  0  0  0
    6.4756  -17.2099    8.2185 C   0  0  0  0  0  0  0  0  0  0  0  0
    4.8567  -17.1417    8.2704 C   0  0  0  0  0  0  0  0  0  0  0  0
    4.0684  -18.5085    8.0467 C   0  0  0  0  0  0  0  0  0  0  0  0
    2.5490  -18.5739    8.2726 C   0  0  0  0  0  0  0  0  0  0  0  0
    1.5609  -17.7718    7.8952 N   0  0  0  0  0  0  0  0  0  0  0  0
    0.4019  -18.4226    8.3195 C   0  0  0  0  0  0  0  0  0  0  0  0
   -0.9571  -18.0726    8.2511 C   0  0  0  0  0  0  0  0  0  0  0  0
   -1.8993  -18.9333    8.8409 C   0  0  0  0  0  0  0  0  0  0  0  0
   -1.5228  -20.1355    9.4436 C   0  0  0  0  0  0  0  0  0  0  0  0
   -0.1792  -20.5197    9.4830 C   0  0  0  0  0  0  0  0  0  0  0  0
    0.7340  -19.6234    8.9231 C   0  0  0  0  0  0  0  0  0  0  0  0
    2.0980  -19.7395    8.8753 O   0  0  0  0  0  0  0  0  0  0  0  0
    9.4474  -14.2347    8.5717 C   0  0  0  0  0  0  0  0  0  0  0  0
    9.3199  -12.8200    7.9461 C   0  0  0  0  0  0  0  0  0  0  0  0
   10.0120  -11.6840    8.4300 C   0  0  0  0  0  0  0  0  0  0  0  0
    9.8681  -10.4134    7.8761 C   0  0  0  0  0  0  0  0  0  0  0  0
    8.9904  -10.2761    6.8336 C   0  0  0  0  0  0  0  0  0  0  0  0
    8.2895  -11.3080    6.3395 N   0  0  0  0  0  0  0  0  0  0  0  0
    8.4880  -12.5445    6.8843 C   0  0  0  0  0  0  0  0  0  0  0  0
   10.8900  -14.6544    8.7841 N   0  0  0  0  0  0  0  0  0  0  0  0
   11.5787  -14.4061   10.0473 C   0  0  0  0  0  0  0  0  0  0  0  0
   12.6701  -13.3646    9.8359 C   0  0  0  0  0  0  0  0  0  0  0  0
   12.8332  -13.2874    8.3267 C   0  0  0  0  0  0  0  0  0  0  0  0
   11.8525  -14.3188    7.7324 C   0  0  0  0  0  0  0  0  0  0  0  0
    7.1122  -15.2980    9.1680 H   0  0  0  0  0  0  0  0  0  0  0  0
    6.7780  -17.6292    7.2550 H   0  0  0  0  0  0  0  0  0  0  0  0
    6.7922  -17.9248    8.9863 H   0  0  0  0  0  0  0  0  0  0  0  0
    4.5604  -16.7083    9.2320 H   0  0  0  0  0  0  0  0  0  0  0  0
    4.5113  -16.4737    7.4757 H   0  0  0  0  0  0  0  0  0  0  0  0
    4.5306  -19.2539    8.7066 H   0  0  0  0  0  0  0  0  0  0  0  0
    4.2588  -18.8398    7.0184 H   0  0  0  0  0  0  0  0  0  0  0  0
   -1.2693  -17.1479    7.7830 H   0  0  0  0  0  0  0  0  0  0  0  0
   -2.9450  -18.6546    8.8549 H   0  0  0  0  0  0  0  0  0  0  0  0
   -2.2871  -20.7618    9.9059 H   0  0  0  0  0  0  0  0  0  0  0  0
    0.1415  -21.4378    9.9586 H   0  0  0  0  0  0  0  0  0  0  0  0
    8.9276  -14.2215    9.5258 H   0  0  0  0  0  0  0  0  0  0  0  0
   10.6754  -11.7685    9.2768 H   0  0  0  0  0  0  0  0  0  0  0  0
   10.4106   -9.5646    8.2731 H   0  0  0  0  0  0  0  0  0  0  0  0
    8.8145   -9.3171    6.3589 H   0  0  0  0  0  0  0  0  0  0  0  0
    7.8923  -13.3191    6.4101 H   0  0  0  0  0  0  0  0  0  0  0  0
   12.0728  -15.3486   10.3210 H   0  0  0  0  0  0  0  0  0  0  0  0
   10.9464  -14.1889   10.8934 H   0  0  0  0  0  0  0  0  0  0  0  0
   12.4052  -12.3929   10.2612 H   0  0  0  0  0  0  0  0  0  0  0  0
   13.6049  -13.6792   10.3130 H   0  0  0  0  0  0  0  0  0  0  0  0
   13.8617  -13.5227    8.0311 H   0  0  0  0  0  0  0  0  0  0  0  0
   12.6214  -12.2782    7.9620 H   0  0  0  0  0  0  0  0  0  0  0  0
   12.4126  -15.2301    7.4874 H   0  0  0  0  0  0  0  0  0  0  0  0
   11.4116  -13.9735    6.7919 H   0  0  0  0  0  0  0  0  0  0  0  0
  1  2  2  0
  2  3  1  0
  3  4  1  0
  4  5  1  0
  5  6  1  0
  6  7  1  0
  7  8  2  0
  8  9  1  0
  9 10  2  0
 10 11  1  0
 11 12  2  0
 12 13  1  0
 13 14  2  0
 14 15  1  0
  2 16  1  0
 16 17  1  0
 17 18  2  0
 18 19  1  0
 19 20  2  0
 20 21  1  0
 21 22  2  0
 16 23  1  0
 23 24  1  0
 24 25  1  0
 25 26  1  0
 26 27  1  0
 15  7  1  0
 22 17  1  0
 27 23  1  0
 14  9  1  0
  3 28  1  0
  4 29  1  0
  4 30  1  0
  5 31  1  0
  5 32  1  0
  6 33  1  0
  6 34  1  0
 10 35  1  0
 11 36  1  0
 12 37  1  0
 13 38  1  0
 16 39  1  0
 18 40  1  0
 19 41  1  0
 20 42  1  0
 22 43  1  0
 24 44  1  0
 24 45  1  0
 25 46  1  0
 25 47  1  0
 26 48  1  0
 26 49  1  0
 27 50  1  0
 27 51  1  0
M  END
>  <Energy>  (303) 
130.71840172970269

>  <compound_id>  (303) 
10262

>  <target_id>  (303) 
1

>  <reference_id>  (303) 
2

>  <inspiration_ids>  (303) 
[124, 2]

>  <energy_score>  (303) 
7.537473277026493

>  <distance_score>  (303) 
13.899187256249444

>  <path>  (303) 
/opt/xchem-fragalysis-2/maxwin/BulkDock/SCRATCH/511015/C10262-P2/C10262-P2.minimised.mol

>  <scratch_subdir>  (303) 
/opt/xchem-fragalysis-2/maxwin/BulkDock/SCRATCH/511015/C10262-P2

>  <fragmenstein_runtime>  (303) 
26.99338150024414

>  <fragmenstein_outcome>  (303) 
too moved

>  <fragmenstein_mode>  (303) 
expansion

>  <fragmenstein_error>  (303) 


$$$$
C10263-P124
     RDKit          3D

 50 52  0  0  0  0  0  0  0  0999 V2000
    9.7931   -7.1047    9.8824 C   0  0  0  0  0  0  0  0  0  0  0  0
    8.7662   -6.8527    8.8380 N   0  0  0  0  0  0  0  0  0  0  0  0
    9.4602   -6.2748    7.6929 C   0  0  0  0  0  0  0  0  0  0  0  0
    7.9537   -8.0789    8.5415 C   0  0  0  0  0  0  0  0  0  0  0  0
    8.0972   -8.8354    7.2624 C   0  0  0  0  0  0  0  0  0  0  0  0
    6.9847   -9.9183    7.4173 C   0  0  0  0  0  0  0  0  0  0  0  0
    5.6187   -9.3775    7.9533 N   0  0  0  0  0  0  0  0  0  0  0  0
    4.5137  -10.5942    8.9663 C   0  0  0  0  0  0  0  0  0  0  0  0
    3.1857  -11.6940    8.4359 C   0  0  0  0  0  0  0  0  0  0  0  0
    3.1555  -12.7145    9.1237 O   0  0  0  0  0  0  0  0  0  0  0  0
    2.3123  -11.2860    7.1055 N   0  0  0  0  0  0  0  0  0  0  0  0
    1.2298  -12.1500    6.2258 C   0  0  0  0  0  0  0  0  0  0  0  0
    1.1581  -13.7372    5.8699 C   0  0  0  0  0  0  0  0  0  0  0  0
   -0.0891  -14.2463    5.0227 C   0  0  0  0  0  0  0  0  0  0  0  0
   -0.5332  -15.7059    5.1458 C   0  0  0  0  0  0  0  0  0  0  0  0
   -1.1832  -16.4361    4.2467 N   0  0  0  0  0  0  0  0  0  0  0  0
   -1.3176  -17.6762    4.8415 C   0  0  0  0  0  0  0  0  0  0  0  0
   -1.8147  -18.8962    4.3588 C   0  0  0  0  0  0  0  0  0  0  0  0
   -1.7517  -20.0205    5.2013 C   0  0  0  0  0  0  0  0  0  0  0  0
   -1.2735  -19.9179    6.5159 C   0  0  0  0  0  0  0  0  0  0  0  0
   -0.8156  -18.6973    7.0245 C   0  0  0  0  0  0  0  0  0  0  0  0
   -0.8246  -17.6277    6.1325 C   0  0  0  0  0  0  0  0  0  0  0  0
   -0.3221  -16.3712    6.3296 O   0  0  0  0  0  0  0  0  0  0  0  0
    6.3243   -8.0076    8.4919 C   0  0  0  0  0  0  0  0  0  0  0  0
   10.5306   -7.8459    9.5535 H   0  0  0  0  0  0  0  0  0  0  0  0
   10.3169   -6.1770   10.1395 H   0  0  0  0  0  0  0  0  0  0  0  0
    9.3290   -7.4642   10.8044 H   0  0  0  0  0  0  0  0  0  0  0  0
    9.9625   -5.3408    7.9705 H   0  0  0  0  0  0  0  0  0  0  0  0
    8.7430   -6.0122    6.9077 H   0  0  0  0  0  0  0  0  0  0  0  0
   10.2079   -6.9533    7.2670 H   0  0  0  0  0  0  0  0  0  0  0  0
    8.3074   -8.8193    9.2559 H   0  0  0  0  0  0  0  0  0  0  0  0
    9.0827   -9.2986    7.1468 H   0  0  0  0  0  0  0  0  0  0  0  0
    7.8974   -8.2150    6.3805 H   0  0  0  0  0  0  0  0  0  0  0  0
    7.3644  -10.6984    8.0689 H   0  0  0  0  0  0  0  0  0  0  0  0
    6.9396  -10.2869    6.3920 H   0  0  0  0  0  0  0  0  0  0  0  0
    3.5813  -10.3165    9.5361 H   0  0  0  0  0  0  0  0  0  0  0  0
    4.5727  -10.3203    9.9960 H   0  0  0  0  0  0  0  0  0  0  0  0
    2.5283  -10.3327    6.8353 H   0  0  0  0  0  0  0  0  0  0  0  0
    0.3057  -11.5902    6.0953 H   0  0  0  0  0  0  0  0  0  0  0  0
    1.6431  -11.8247    5.2518 H   0  0  0  0  0  0  0  0  0  0  0  0
    1.2733  -14.3467    6.7606 H   0  0  0  0  0  0  0  0  0  0  0  0
    2.0336  -13.9757    5.2491 H   0  0  0  0  0  0  0  0  0  0  0  0
   -0.9588  -13.6089    5.1947 H   0  0  0  0  0  0  0  0  0  0  0  0
    0.1663  -14.0855    3.9662 H   0  0  0  0  0  0  0  0  0  0  0  0
   -2.1920  -18.9737    3.3457 H   0  0  0  0  0  0  0  0  0  0  0  0
   -2.1018  -20.9840    4.8356 H   0  0  0  0  0  0  0  0  0  0  0  0
   -1.2634  -20.7991    7.1561 H   0  0  0  0  0  0  0  0  0  0  0  0
   -0.4282  -18.6007    8.0315 H   0  0  0  0  0  0  0  0  0  0  0  0
    6.1173   -7.2680    7.7098 H   0  0  0  0  0  0  0  0  0  0  0  0
    5.9091   -7.6462    9.4253 H   0  0  0  0  0  0  0  0  0  0  0  0
  1  2  1  0
  2  3  1  0
  2  4  1  0
  4  5  1  0
  5  6  1  0
  6  7  1  0
  7  8  1  0
  8  9  1  0
  9 10  2  0
  9 11  1  0
 11 12  1  0
 12 13  1  0
 13 14  1  0
 14 15  1  0
 15 16  2  0
 16 17  1  0
 17 18  2  0
 18 19  1  0
 19 20  2  0
 20 21  1  0
 21 22  2  0
 22 23  1  0
  7 24  1  0
 24  4  1  0
 23 15  1  0
 22 17  1  0
  1 25  1  0
  1 26  1  0
  1 27  1  0
  3 28  1  0
  3 29  1  0
  3 30  1  0
  4 31  1  0
  5 32  1  0
  5 33  1  0
  6 34  1  0
  6 35  1  0
  8 36  1  0
  8 37  1  0
 11 38  1  0
 12 39  1  0
 12 40  1  0
 13 41  1  0
 13 42  1  0
 14 43  1  0
 14 44  1  0
 18 45  1  0
 19 46  1  0
 20 47  1  0
 21 48  1  0
 24 49  1  0
 24 50  1  0
M  END
>  <Energy>  (304) 
349.1662080736661

>  <compound_id>  (304) 
10263

>  <target_id>  (304) 
1

>  <reference_id>  (304) 
124

>  <inspiration_ids>  (304) 
[124, 2]

>  <energy_score>  (304) 
226.92794438285352

>  <distance_score>  (304) 
13.26419143853474

>  <path>  (304) 
/opt/xchem-fragalysis-2/maxwin/BulkDock/SCRATCH/511015/C10263-P124/C10263-P124.minimised.mol

>  <scratch_subdir>  (304) 
/opt/xchem-fragalysis-2/maxwin/BulkDock/SCRATCH/511015/C10263-P124

>  <fragmenstein_runtime>  (304) 
20.757219076156616

>  <fragmenstein_outcome>  (304) 
too moved

>  <fragmenstein_mode>  (304) 
expansion

>  <fragmenstein_error>  (304) 


$$$$
C10263-P2
     RDKit          3D

 50 52  0  0  0  0  0  0  0  0999 V2000
   13.4237   -1.4896   14.2416 C   0  0  0  0  0  0  0  0  0  0  0  0
   12.3812   -2.0337   15.1279 N   0  0  0  0  0  0  0  0  0  0  0  0
   13.0362   -2.3673   16.4107 C   0  0  0  0  0  0  0  0  0  0  0  0
   11.6733   -3.2280   14.5866 C   0  0  0  0  0  0  0  0  0  0  0  0
   11.5548   -3.4067   13.1252 C   0  0  0  0  0  0  0  0  0  0  0  0
   10.3632   -4.3237   12.7623 C   0  0  0  0  0  0  0  0  0  0  0  0
    9.3520   -4.3446   13.8873 N   0  0  0  0  0  0  0  0  0  0  0  0
    8.8158   -6.0326   13.7719 C   0  0  0  0  0  0  0  0  0  0  0  0
    7.2698   -6.8483   14.4934 C   0  0  0  0  0  0  0  0  0  0  0  0
    7.0531   -6.8007   15.6947 O   0  0  0  0  0  0  0  0  0  0  0  0
    6.2678   -7.4837   13.2276 N   0  0  0  0  0  0  0  0  0  0  0  0
    4.5121   -8.1630   13.2756 C   0  0  0  0  0  0  0  0  0  0  0  0
    3.3966   -8.5758   11.5949 C   0  0  0  0  0  0  0  0  0  0  0  0
    2.3803  -10.3140   11.2136 C   0  0  0  0  0  0  0  0  0  0  0  0
    0.8548  -11.3592   11.7406 C   0  0  0  0  0  0  0  0  0  0  0  0
   -0.0529  -11.8937   10.9563 N   0  0  0  0  0  0  0  0  0  0  0  0
   -0.3565  -13.2838   11.2301 C   0  0  0  0  0  0  0  0  0  0  0  0
   -1.0086  -14.5234   10.6136 C   0  0  0  0  0  0  0  0  0  0  0  0
   -1.3013  -15.7832   11.0689 C   0  0  0  0  0  0  0  0  0  0  0  0
   -0.3288  -16.0354   11.9461 C   0  0  0  0  0  0  0  0  0  0  0  0
    0.2737  -14.8752   12.5636 C   0  0  0  0  0  0  0  0  0  0  0  0
    0.1316  -13.5219   12.4183 C   0  0  0  0  0  0  0  0  0  0  0  0
    0.5926  -12.3429   12.9402 O   0  0  0  0  0  0  0  0  0  0  0  0
   10.2054   -3.3764   14.9130 C   0  0  0  0  0  0  0  0  0  0  0  0
   14.1957   -2.2217   13.9887 H   0  0  0  0  0  0  0  0  0  0  0  0
   12.9944   -1.0922   13.3174 H   0  0  0  0  0  0  0  0  0  0  0  0
   13.9173   -0.6351   14.7204 H   0  0  0  0  0  0  0  0  0  0  0  0
   13.8601   -3.0793   16.2826 H   0  0  0  0  0  0  0  0  0  0  0  0
   13.4300   -1.4609   16.8840 H   0  0  0  0  0  0  0  0  0  0  0  0
   12.3196   -2.8014   17.1119 H   0  0  0  0  0  0  0  0  0  0  0  0
   12.1637   -4.0788   15.0452 H   0  0  0  0  0  0  0  0  0  0  0  0
   11.4655   -2.4167   12.7082 H   0  0  0  0  0  0  0  0  0  0  0  0
   12.4669   -3.8068   12.7212 H   0  0  0  0  0  0  0  0  0  0  0  0
   10.7575   -5.3220   12.5615 H   0  0  0  0  0  0  0  0  0  0  0  0
    9.8809   -4.0298   11.8240 H   0  0  0  0  0  0  0  0  0  0  0  0
    9.6984   -6.6546   13.9748 H   0  0  0  0  0  0  0  0  0  0  0  0
    8.6610   -6.1290   12.6976 H   0  0  0  0  0  0  0  0  0  0  0  0
    6.7669   -7.4507   12.3479 H   0  0  0  0  0  0  0  0  0  0  0  0
    4.0513   -7.5020   13.9651 H   0  0  0  0  0  0  0  0  0  0  0  0
    4.5955   -9.1552   13.7378 H   0  0  0  0  0  0  0  0  0  0  0  0
    2.7859   -7.6357   11.5000 H   0  0  0  0  0  0  0  0  0  0  0  0
    3.9694   -8.4810   10.6337 H   0  0  0  0  0  0  0  0  0  0  0  0
    3.0664  -11.0133   10.7232 H   0  0  0  0  0  0  0  0  0  0  0  0
    1.7345   -9.8702   10.4583 H   0  0  0  0  0  0  0  0  0  0  0  0
   -0.0814  -14.9207   10.1213 H   0  0  0  0  0  0  0  0  0  0  0  0
   -1.7945  -16.5451   10.4836 H   0  0  0  0  0  0  0  0  0  0  0  0
   -0.0018  -17.0472   12.1604 H   0  0  0  0  0  0  0  0  0  0  0  0
    1.2229  -15.0215   12.8950 H   0  0  0  0  0  0  0  0  0  0  0  0
    9.6423   -2.4505   15.0349 H   0  0  0  0  0  0  0  0  0  0  0  0
   10.3431   -3.5958   15.9641 H   0  0  0  0  0  0  0  0  0  0  0  0
  1  2  1  0
  2  3  1  0
  2  4  1  0
  4  5  1  0
  5  6  1  0
  6  7  1  0
  7  8  1  0
  8  9  1  0
  9 10  2  0
  9 11  1  0
 11 12  1  0
 12 13  1  0
 13 14  1  0
 14 15  1  0
 15 16  2  0
 16 17  1  0
 17 18  2  0
 18 19  1  0
 19 20  2  0
 20 21  1  0
 21 22  2  0
 22 23  1  0
  7 24  1  0
 24  4  1  0
 23 15  1  0
 22 17  1  0
  1 25  1  0
  1 26  1  0
  1 27  1  0
  3 28  1  0
  3 29  1  0
  3 30  1  0
  4 31  1  0
  5 32  1  0
  5 33  1  0
  6 34  1  0
  6 35  1  0
  8 36  1  0
  8 37  1  0
 11 38  1  0
 12 39  1  0
 12 40  1  0
 13 41  1  0
 13 42  1  0
 14 43  1  0
 14 44  1  0
 18 45  1  0
 19 46  1  0
 20 47  1  0
 21 48  1  0
 24 49  1  0
 24 50  1  0
M  END
>  <Energy>  (305) 
671.60592791124327

>  <compound_id>  (305) 
10263

>  <target_id>  (305) 
1

>  <reference_id>  (305) 
2

>  <inspiration_ids>  (305) 
[124, 2]

>  <energy_score>  (305) 
549.3676642204239

>  <distance_score>  (305) 
10.867696160851876

>  <path>  (305) 
/opt/xchem-fragalysis-2/maxwin/BulkDock/SCRATCH/511015/C10263-P2/C10263-P2.minimised.mol

>  <scratch_subdir>  (305) 
/opt/xchem-fragalysis-2/maxwin/BulkDock/SCRATCH/511015/C10263-P2

>  <fragmenstein_runtime>  (305) 
17.77254295349121

>  <fragmenstein_outcome>  (305) 
too moved

>  <fragmenstein_mode>  (305) 
expansion

>  <fragmenstein_error>  (305) 


$$$$
C10270-P124
     RDKit          3D

 51 55  0  0  0  0  0  0  0  0999 V2000
    3.4769  -10.7021   10.6898 O   0  0  0  0  0  0  0  0  0  0  0  0
    3.1233  -10.7272   11.8423 C   0  0  0  0  0  0  0  0  0  0  0  0
    1.7118  -11.3736   12.3994 N   0  0  0  0  0  0  0  0  0  0  0  0
    0.5122  -12.2277   11.6273 C   0  0  0  0  0  0  0  0  0  0  0  0
   -0.0623  -14.0705   11.6622 C   0  0  0  0  0  0  0  0  0  0  0  0
    0.4926  -15.3448   12.2118 C   0  0  0  0  0  0  0  0  0  0  0  0
    0.6751  -16.4321   11.1418 C   0  0  0  0  0  0  0  0  0  0  0  0
   -0.6464  -16.4744   10.5470 N   0  0  0  0  0  0  0  0  0  0  0  0
   -0.7144  -17.2725    9.4381 C   0  0  0  0  0  0  0  0  0  0  0  0
    0.2447  -17.3932    8.5356 N   0  0  0  0  0  0  0  0  0  0  0  0
   -0.1520  -18.4057    7.7242 C   0  0  0  0  0  0  0  0  0  0  0  0
    0.4591  -18.9585    6.5922 C   0  0  0  0  0  0  0  0  0  0  0  0
   -0.1181  -20.0812    5.9876 C   0  0  0  0  0  0  0  0  0  0  0  0
   -1.2739  -20.6432    6.5059 C   0  0  0  0  0  0  0  0  0  0  0  0
   -1.8991  -20.0628    7.6100 C   0  0  0  0  0  0  0  0  0  0  0  0
   -1.3368  -18.9308    8.1865 C   0  0  0  0  0  0  0  0  0  0  0  0
   -1.7482  -18.1675    9.2618 O   0  0  0  0  0  0  0  0  0  0  0  0
   -1.1965  -15.0702   10.7046 C   0  0  0  0  0  0  0  0  0  0  0  0
    4.3232  -10.0709   13.4808 C   0  0  0  0  0  0  0  0  0  0  0  0
    4.1675   -8.5278   13.7672 O   0  0  0  0  0  0  0  0  0  0  0  0
    5.0838   -7.4241   13.6411 C   0  0  0  0  0  0  0  0  0  0  0  0
    6.4296   -7.9633   13.9185 C   0  0  0  0  0  0  0  0  0  0  0  0
    7.1513   -7.1335   15.0382 C   0  0  0  0  0  0  0  0  0  0  0  0
    7.6676   -8.0565   16.1249 C   0  0  0  0  0  0  0  0  0  0  0  0
    7.3358   -9.5504   15.7656 C   0  0  0  0  0  0  0  0  0  0  0  0
    6.1493   -9.7120   14.2436 C   0  0  0  0  0  0  0  0  0  0  0  0
    1.7156  -11.3376   13.3821 H   0  0  0  0  0  0  0  0  0  0  0  0
    1.2551  -12.3756   10.8921 H   0  0  0  0  0  0  0  0  0  0  0  0
   -0.2560  -11.5115   11.3908 H   0  0  0  0  0  0  0  0  0  0  0  0
    0.8590  -14.1328   11.2042 H   0  0  0  0  0  0  0  0  0  0  0  0
   -0.1355  -15.9165   12.8223 H   0  0  0  0  0  0  0  0  0  0  0  0
    1.2833  -15.0094   12.7980 H   0  0  0  0  0  0  0  0  0  0  0  0
    1.4433  -16.1846   10.4026 H   0  0  0  0  0  0  0  0  0  0  0  0
    0.9325  -17.3962   11.5977 H   0  0  0  0  0  0  0  0  0  0  0  0
    1.3766  -18.5287    6.2065 H   0  0  0  0  0  0  0  0  0  0  0  0
    0.3568  -20.5215    5.1145 H   0  0  0  0  0  0  0  0  0  0  0  0
   -1.7080  -21.5267    6.0447 H   0  0  0  0  0  0  0  0  0  0  0  0
   -2.8175  -20.4966    7.9773 H   0  0  0  0  0  0  0  0  0  0  0  0
   -1.6962  -14.6307    9.8758 H   0  0  0  0  0  0  0  0  0  0  0  0
   -2.1544  -15.2484   11.1642 H   0  0  0  0  0  0  0  0  0  0  0  0
    3.9354  -10.6570   14.3143 H   0  0  0  0  0  0  0  0  0  0  0  0
    4.9575   -6.8849   12.7060 H   0  0  0  0  0  0  0  0  0  0  0  0
    4.7805   -6.5905   14.2908 H   0  0  0  0  0  0  0  0  0  0  0  0
    6.9890   -7.7948   12.9892 H   0  0  0  0  0  0  0  0  0  0  0  0
    6.5184   -6.3548   15.4784 H   0  0  0  0  0  0  0  0  0  0  0  0
    7.9881   -6.5769   14.5947 H   0  0  0  0  0  0  0  0  0  0  0  0
    7.2082   -7.7953   17.0862 H   0  0  0  0  0  0  0  0  0  0  0  0
    8.7470   -7.9338   16.2721 H   0  0  0  0  0  0  0  0  0  0  0  0
    6.9292   -9.9373   16.7087 H   0  0  0  0  0  0  0  0  0  0  0  0
    8.2713  -10.1064   15.6051 H   0  0  0  0  0  0  0  0  0  0  0  0
    6.4803  -10.6467   13.9556 H   0  0  0  0  0  0  0  0  0  0  0  0
  1  2  2  0
  2  3  1  0
  3  4  1  0
  4  5  1  0
  5  6  1  0
  6  7  1  0
  7  8  1  0
  8  9  1  0
  9 10  2  0
 10 11  1  0
 11 12  2  0
 12 13  1  0
 13 14  2  0
 14 15  1  0
 15 16  2  0
 16 17  1  0
  8 18  1  0
  2 19  1  0
 19 20  1  0
 20 21  1  0
 21 22  1  0
 22 23  1  0
 23 24  1  0
 24 25  1  0
 25 26  1  0
 18  5  1  0
 26 19  1  0
 17  9  1  0
 26 22  1  0
 16 11  1  0
  3 27  1  0
  4 28  1  0
  4 29  1  0
  5 30  1  0
  6 31  1  0
  6 32  1  0
  7 33  1  0
  7 34  1  0
 12 35  1  0
 13 36  1  0
 14 37  1  0
 15 38  1  0
 18 39  1  0
 18 40  1  0
 19 41  1  0
 21 42  1  0
 21 43  1  0
 22 44  1  0
 23 45  1  0
 23 46  1  0
 24 47  1  0
 24 48  1  0
 25 49  1  0
 25 50  1  0
 26 51  1  0
M  END
>  <Energy>  (306) 
553.30957786288934

>  <compound_id>  (306) 
10270

>  <target_id>  (306) 
1

>  <reference_id>  (306) 
124

>  <inspiration_ids>  (306) 
[124, 2]

>  <energy_score>  (306) 
489.03191283210515

>  <distance_score>  (306) 
12.09339359590221

>  <path>  (306) 
/opt/xchem-fragalysis-2/maxwin/BulkDock/SCRATCH/511015/C10270-P124/C10270-P124.minimised.mol

>  <scratch_subdir>  (306) 
/opt/xchem-fragalysis-2/maxwin/BulkDock/SCRATCH/511015/C10270-P124

>  <fragmenstein_runtime>  (306) 
21.795496463775635

>  <fragmenstein_outcome>  (306) 
too moved

>  <fragmenstein_mode>  (306) 
expansion

>  <fragmenstein_error>  (306) 


$$$$
C10270-P2
     RDKit          3D

 51 55  0  0  0  0  0  0  0  0999 V2000
    8.4416  -10.2876    8.5550 O   0  0  0  0  0  0  0  0  0  0  0  0
    9.3778  -10.2841    9.3152 C   0  0  0  0  0  0  0  0  0  0  0  0
   10.4198  -11.4169    9.4615 N   0  0  0  0  0  0  0  0  0  0  0  0
   10.6224  -12.7319    8.6703 C   0  0  0  0  0  0  0  0  0  0  0  0
    9.8352  -14.2069    8.8617 C   0  0  0  0  0  0  0  0  0  0  0  0
   10.2150  -15.1979    7.7348 C   0  0  0  0  0  0  0  0  0  0  0  0
    9.2584  -16.4220    7.8582 C   0  0  0  0  0  0  0  0  0  0  0  0
    8.0372  -15.9468    8.5102 N   0  0  0  0  0  0  0  0  0  0  0  0
    6.8057  -16.5828    8.2830 C   0  0  0  0  0  0  0  0  0  0  0  0
    6.4075  -17.3956    7.3014 N   0  0  0  0  0  0  0  0  0  0  0  0
    5.1015  -17.7876    7.6155 C   0  0  0  0  0  0  0  0  0  0  0  0
    4.1559  -18.5950    6.9440 C   0  0  0  0  0  0  0  0  0  0  0  0
    2.9096  -18.8585    7.5480 C   0  0  0  0  0  0  0  0  0  0  0  0
    2.6118  -18.3455    8.8092 C   0  0  0  0  0  0  0  0  0  0  0  0
    3.5314  -17.5290    9.4846 C   0  0  0  0  0  0  0  0  0  0  0  0
    4.7480  -17.2617    8.8411 C   0  0  0  0  0  0  0  0  0  0  0  0
    5.8007  -16.4631    9.2544 O   0  0  0  0  0  0  0  0  0  0  0  0
    8.2656  -14.4506    8.7905 C   0  0  0  0  0  0  0  0  0  0  0  0
    9.4969   -8.3538   10.3385 C   0  0  0  0  0  0  0  0  0  0  0  0
   10.4442   -7.4070    9.3203 O   0  0  0  0  0  0  0  0  0  0  0  0
   10.8815   -6.1313    9.7447 C   0  0  0  0  0  0  0  0  0  0  0  0
    9.6937   -5.6440   10.4767 C   0  0  0  0  0  0  0  0  0  0  0  0
    9.9692   -4.3625   11.2694 C   0  0  0  0  0  0  0  0  0  0  0  0
    9.8499   -4.8085   12.6912 C   0  0  0  0  0  0  0  0  0  0  0  0
   10.1747   -6.2935   12.5736 C   0  0  0  0  0  0  0  0  0  0  0  0
    9.3921   -6.9184   11.3967 C   0  0  0  0  0  0  0  0  0  0  0  0
   11.1301  -11.1120   10.1022 H   0  0  0  0  0  0  0  0  0  0  0  0
   10.4179  -12.4337    7.6350 H   0  0  0  0  0  0  0  0  0  0  0  0
   11.6959  -12.9395    8.7469 H   0  0  0  0  0  0  0  0  0  0  0  0
   10.2194  -14.6337    9.7945 H   0  0  0  0  0  0  0  0  0  0  0  0
   11.2630  -15.5080    7.7949 H   0  0  0  0  0  0  0  0  0  0  0  0
   10.0636  -14.7222    6.7577 H   0  0  0  0  0  0  0  0  0  0  0  0
    9.7215  -17.1859    8.4928 H   0  0  0  0  0  0  0  0  0  0  0  0
    9.0781  -16.8605    6.8719 H   0  0  0  0  0  0  0  0  0  0  0  0
    4.4008  -19.0240    5.9781 H   0  0  0  0  0  0  0  0  0  0  0  0
    2.1856  -19.4919    7.0390 H   0  0  0  0  0  0  0  0  0  0  0  0
    1.6649  -18.5968    9.2816 H   0  0  0  0  0  0  0  0  0  0  0  0
    3.3125  -17.1508   10.4732 H   0  0  0  0  0  0  0  0  0  0  0  0
    7.7917  -14.2053    9.7332 H   0  0  0  0  0  0  0  0  0  0  0  0
    7.8995  -13.8434    7.9630 H   0  0  0  0  0  0  0  0  0  0  0  0
    8.5031   -8.0289   10.1226 H   0  0  0  0  0  0  0  0  0  0  0  0
   11.1132   -5.5207    8.8667 H   0  0  0  0  0  0  0  0  0  0  0  0
   11.8025   -6.2384   10.3232 H   0  0  0  0  0  0  0  0  0  0  0  0
    8.9330   -5.4081    9.7319 H   0  0  0  0  0  0  0  0  0  0  0  0
    9.2377   -3.5794   11.0445 H   0  0  0  0  0  0  0  0  0  0  0  0
   10.9639   -3.9554   11.0551 H   0  0  0  0  0  0  0  0  0  0  0  0
    8.8340   -4.6649   13.0719 H   0  0  0  0  0  0  0  0  0  0  0  0
   10.5353   -4.2688   13.3500 H   0  0  0  0  0  0  0  0  0  0  0  0
   11.1999   -6.3725   12.2701 H   0  0  0  0  0  0  0  0  0  0  0  0
    9.9844   -6.6955   13.5721 H   0  0  0  0  0  0  0  0  0  0  0  0
    8.4248   -7.0476   11.8850 H   0  0  0  0  0  0  0  0  0  0  0  0
  1  2  2  0
  2  3  1  0
  3  4  1  0
  4  5  1  0
  5  6  1  0
  6  7  1  0
  7  8  1  0
  8  9  1  0
  9 10  2  0
 10 11  1  0
 11 12  2  0
 12 13  1  0
 13 14  2  0
 14 15  1  0
 15 16  2  0
 16 17  1  0
  8 18  1  0
  2 19  1  0
 19 20  1  0
 20 21  1  0
 21 22  1  0
 22 23  1  0
 23 24  1  0
 24 25  1  0
 25 26  1  0
 18  5  1  0
 26 19  1  0
 17  9  1  0
 26 22  1  0
 16 11  1  0
  3 27  1  0
  4 28  1  0
  4 29  1  0
  5 30  1  0
  6 31  1  0
  6 32  1  0
  7 33  1  0
  7 34  1  0
 12 35  1  0
 13 36  1  0
 14 37  1  0
 15 38  1  0
 18 39  1  0
 18 40  1  0
 19 41  1  0
 21 42  1  0
 21 43  1  0
 22 44  1  0
 23 45  1  0
 23 46  1  0
 24 47  1  0
 24 48  1  0
 25 49  1  0
 25 50  1  0
 26 51  1  0
M  END
>  <Energy>  (307) 
320.28937480374503

>  <compound_id>  (307) 
10270

>  <target_id>  (307) 
1

>  <reference_id>  (307) 
2

>  <inspiration_ids>  (307) 
[124, 2]

>  <energy_score>  (307) 
256.0117097729642

>  <distance_score>  (307) 
13.018383852198362

>  <path>  (307) 
/opt/xchem-fragalysis-2/maxwin/BulkDock/SCRATCH/511015/C10270-P2/C10270-P2.minimised.mol

>  <scratch_subdir>  (307) 
/opt/xchem-fragalysis-2/maxwin/BulkDock/SCRATCH/511015/C10270-P2

>  <fragmenstein_runtime>  (307) 
22.277880907058716

>  <fragmenstein_outcome>  (307) 
too moved

>  <fragmenstein_mode>  (307) 
expansion

>  <fragmenstein_error>  (307) 


$$$$
C10273-P124
     RDKit          3D

 49 51  0  0  0  0  0  0  0  0999 V2000
    2.7002  -19.1432   12.1786 C   0  0  0  0  0  0  0  0  0  0  0  0
    2.0226  -18.2176   11.1896 C   0  0  0  0  0  0  0  0  0  0  0  0
    2.3223  -18.2896   10.0312 O   0  0  0  0  0  0  0  0  0  0  0  0
    1.0390  -17.3935   11.8619 N   0  0  0  0  0  0  0  0  0  0  0  0
    0.1594  -16.3084   11.3460 C   0  0  0  0  0  0  0  0  0  0  0  0
   -0.4216  -17.0078    9.9981 C   0  0  0  0  0  0  0  0  0  0  0  0
   -0.1689  -14.6426   11.2042 C   0  0  0  0  0  0  0  0  0  0  0  0
   -1.1679  -14.3443   10.6231 O   0  0  0  0  0  0  0  0  0  0  0  0
    0.9105  -13.8193   11.7194 N   0  0  0  0  0  0  0  0  0  0  0  0
    1.2536  -12.0265   11.5587 C   0  0  0  0  0  0  0  0  0  0  0  0
    3.2832  -11.5982   11.3183 C   0  0  0  0  0  0  0  0  0  0  0  0
    3.0810  -10.2666   11.4775 C   0  0  0  0  0  0  0  0  0  0  0  0
    3.9277  -10.1732   13.3363 C   0  0  0  0  0  0  0  0  0  0  0  0
    4.8331  -10.9840   14.0340 N   0  0  0  0  0  0  0  0  0  0  0  0
    5.8704  -10.3349   14.8819 C   0  0  0  0  0  0  0  0  0  0  0  0
    7.1582  -11.0866   15.1395 C   0  0  0  0  0  0  0  0  0  0  0  0
    8.0973  -11.4820   14.2880 N   0  0  0  0  0  0  0  0  0  0  0  0
    9.2241  -11.5537   15.0718 C   0  0  0  0  0  0  0  0  0  0  0  0
   10.5753  -11.7057   14.7337 C   0  0  0  0  0  0  0  0  0  0  0  0
   11.5210  -11.7037   15.7682 C   0  0  0  0  0  0  0  0  0  0  0  0
   11.1199  -11.6274   17.1065 C   0  0  0  0  0  0  0  0  0  0  0  0
    9.7716  -11.4952   17.4601 C   0  0  0  0  0  0  0  0  0  0  0  0
    8.8771  -11.4181   16.4027 C   0  0  0  0  0  0  0  0  0  0  0  0
    7.5345  -11.1770   16.4649 O   0  0  0  0  0  0  0  0  0  0  0  0
    4.9911  -11.3608   12.6794 C   0  0  0  0  0  0  0  0  0  0  0  0
    3.1387  -19.9880   11.6380 H   0  0  0  0  0  0  0  0  0  0  0  0
    3.4997  -18.6059   12.6942 H   0  0  0  0  0  0  0  0  0  0  0  0
    1.9810  -19.5498   12.8947 H   0  0  0  0  0  0  0  0  0  0  0  0
    1.1159  -17.5364   12.8586 H   0  0  0  0  0  0  0  0  0  0  0  0
    1.0752  -15.9915   10.8136 H   0  0  0  0  0  0  0  0  0  0  0  0
   -1.4009  -16.6264    9.7000 H   0  0  0  0  0  0  0  0  0  0  0  0
   -0.4510  -18.1047   10.0418 H   0  0  0  0  0  0  0  0  0  0  0  0
    0.2951  -16.8652    9.1797 H   0  0  0  0  0  0  0  0  0  0  0  0
    1.5313  -14.3863   12.2241 H   0  0  0  0  0  0  0  0  0  0  0  0
    0.9706  -11.7497   12.5400 H   0  0  0  0  0  0  0  0  0  0  0  0
    0.5064  -11.4874   10.9968 H   0  0  0  0  0  0  0  0  0  0  0  0
    3.5267  -12.0810   10.3701 H   0  0  0  0  0  0  0  0  0  0  0  0
    2.0461  -10.0424   11.1831 H   0  0  0  0  0  0  0  0  0  0  0  0
    3.6082   -9.9252   10.5738 H   0  0  0  0  0  0  0  0  0  0  0  0
    3.1954  -10.6076   13.9971 H   0  0  0  0  0  0  0  0  0  0  0  0
    4.3283   -9.1667   13.5547 H   0  0  0  0  0  0  0  0  0  0  0  0
    5.3833  -10.2109   15.8595 H   0  0  0  0  0  0  0  0  0  0  0  0
    6.1177   -9.3100   14.5961 H   0  0  0  0  0  0  0  0  0  0  0  0
   10.8771  -11.8056   13.6980 H   0  0  0  0  0  0  0  0  0  0  0  0
   12.5795  -11.7936   15.5274 H   0  0  0  0  0  0  0  0  0  0  0  0
   11.8710  -11.6795   17.8922 H   0  0  0  0  0  0  0  0  0  0  0  0
    9.4460  -11.4107   18.4883 H   0  0  0  0  0  0  0  0  0  0  0  0
    5.9744  -10.9783   12.4911 H   0  0  0  0  0  0  0  0  0  0  0  0
    5.3087  -12.3734   13.1076 H   0  0  0  0  0  0  0  0  0  0  0  0
  1  2  1  0
  2  3  2  0
  2  4  1  0
  4  5  1  0
  5  6  1  0
  5  7  1  0
  7  8  2  0
  7  9  1  0
  9 10  1  0
 10 11  1  0
 11 12  1  0
 12 13  1  0
 13 14  1  0
 14 15  1  0
 15 16  1  0
 16 17  2  0
 17 18  1  0
 18 19  2  0
 19 20  1  0
 20 21  2  0
 21 22  1  0
 22 23  2  0
 23 24  1  0
 14 25  1  0
 25 11  1  0
 24 16  1  0
 23 18  1  0
  1 26  1  0
  1 27  1  0
  1 28  1  0
  4 29  1  0
  5 30  1  0
  6 31  1  0
  6 32  1  0
  6 33  1  0
  9 34  1  0
 10 35  1  0
 10 36  1  0
 11 37  1  0
 12 38  1  0
 12 39  1  0
 13 40  1  0
 13 41  1  0
 15 42  1  0
 15 43  1  0
 19 44  1  0
 20 45  1  0
 21 46  1  0
 22 47  1  0
 25 48  1  0
 25 49  1  0
M  END
>  <Energy>  (308) 
570.19034672897828

>  <compound_id>  (308) 
10273

>  <target_id>  (308) 
1

>  <reference_id>  (308) 
124

>  <inspiration_ids>  (308) 
[124, 2]

>  <energy_score>  (308) 
473.76723858740195

>  <distance_score>  (308) 
12.784264876435952

>  <path>  (308) 
/opt/xchem-fragalysis-2/maxwin/BulkDock/SCRATCH/511015/C10273-P124/C10273-P124.minimised.mol

>  <scratch_subdir>  (308) 
/opt/xchem-fragalysis-2/maxwin/BulkDock/SCRATCH/511015/C10273-P124

>  <fragmenstein_runtime>  (308) 
36.56007766723633

>  <fragmenstein_outcome>  (308) 
too moved

>  <fragmenstein_mode>  (308) 
expansion

>  <fragmenstein_error>  (308) 


$$$$
C10273-P2
     RDKit          3D

 49 51  0  0  0  0  0  0  0  0999 V2000
   -0.4817   -3.6824   16.6274 C   0  0  0  0  0  0  0  0  0  0  0  0
    0.6693   -4.1643   15.7675 C   0  0  0  0  0  0  0  0  0  0  0  0
    1.7873   -4.1236   16.1877 O   0  0  0  0  0  0  0  0  0  0  0  0
    0.1595   -4.6282   14.5164 N   0  0  0  0  0  0  0  0  0  0  0  0
    0.8449   -5.1078   13.3239 C   0  0  0  0  0  0  0  0  0  0  0  0
   -0.0719   -6.0658   12.5398 C   0  0  0  0  0  0  0  0  0  0  0  0
    1.3499   -3.8701   12.4910 C   0  0  0  0  0  0  0  0  0  0  0  0
    0.9350   -3.6957   11.3800 O   0  0  0  0  0  0  0  0  0  0  0  0
    2.3290   -3.1273   13.2629 N   0  0  0  0  0  0  0  0  0  0  0  0
    3.0391   -1.8895   12.9669 C   0  0  0  0  0  0  0  0  0  0  0  0
    4.5508   -2.1075   12.9377 C   0  0  0  0  0  0  0  0  0  0  0  0
    5.3777   -1.1002   12.1958 C   0  0  0  0  0  0  0  0  0  0  0  0
    6.7896   -1.3984   12.7292 C   0  0  0  0  0  0  0  0  0  0  0  0
    6.6813   -2.0903   13.9939 N   0  0  0  0  0  0  0  0  0  0  0  0
    7.5676   -1.5797   15.0649 C   0  0  0  0  0  0  0  0  0  0  0  0
    9.0240   -1.1824   14.9912 C   0  0  0  0  0  0  0  0  0  0  0  0
    9.5888    0.0018   15.1955 N   0  0  0  0  0  0  0  0  0  0  0  0
   10.9351   -0.2789   15.2558 C   0  0  0  0  0  0  0  0  0  0  0  0
   12.0523    0.5515   15.3953 C   0  0  0  0  0  0  0  0  0  0  0  0
   13.3138   -0.0545   15.5123 C   0  0  0  0  0  0  0  0  0  0  0  0
   13.4562   -1.4485   15.5070 C   0  0  0  0  0  0  0  0  0  0  0  0
   12.3492   -2.2880   15.3674 C   0  0  0  0  0  0  0  0  0  0  0  0
   11.1300   -1.6454   15.2243 C   0  0  0  0  0  0  0  0  0  0  0  0
    9.9183   -2.2309   15.0650 O   0  0  0  0  0  0  0  0  0  0  0  0
    5.2416   -2.0565   14.3099 C   0  0  0  0  0  0  0  0  0  0  0  0
   -0.1043   -3.3764   17.6077 H   0  0  0  0  0  0  0  0  0  0  0  0
   -1.2068   -4.4885   16.7709 H   0  0  0  0  0  0  0  0  0  0  0  0
   -0.9642   -2.8224   16.1546 H   0  0  0  0  0  0  0  0  0  0  0  0
   -0.8352   -4.4331   14.4722 H   0  0  0  0  0  0  0  0  0  0  0  0
    1.7360   -5.6557   13.6540 H   0  0  0  0  0  0  0  0  0  0  0  0
    0.4646   -6.4692   11.6764 H   0  0  0  0  0  0  0  0  0  0  0  0
   -0.4062   -6.8820   13.1849 H   0  0  0  0  0  0  0  0  0  0  0  0
   -0.9613   -5.5424   12.1721 H   0  0  0  0  0  0  0  0  0  0  0  0
    2.3732   -3.5144   14.2051 H   0  0  0  0  0  0  0  0  0  0  0  0
    2.7500   -1.1519   13.7221 H   0  0  0  0  0  0  0  0  0  0  0  0
    2.6867   -1.5376   11.9916 H   0  0  0  0  0  0  0  0  0  0  0  0
    4.7147   -3.0309   12.3774 H   0  0  0  0  0  0  0  0  0  0  0  0
    4.9919   -0.1028   12.4045 H   0  0  0  0  0  0  0  0  0  0  0  0
    5.3179   -1.2456   11.1106 H   0  0  0  0  0  0  0  0  0  0  0  0
    7.5307   -0.6254   12.8568 H   0  0  0  0  0  0  0  0  0  0  0  0
    7.2081   -2.0011   11.9342 H   0  0  0  0  0  0  0  0  0  0  0  0
    7.0584   -0.8644   15.7148 H   0  0  0  0  0  0  0  0  0  0  0  0
    7.6605   -2.4946   15.6195 H   0  0  0  0  0  0  0  0  0  0  0  0
   11.9377    1.6287   15.4222 H   0  0  0  0  0  0  0  0  0  0  0  0
   14.1966    0.5728   15.6206 H   0  0  0  0  0  0  0  0  0  0  0  0
   14.4475   -1.8859   15.6112 H   0  0  0  0  0  0  0  0  0  0  0  0
   12.4214   -3.3660   15.3723 H   0  0  0  0  0  0  0  0  0  0  0  0
    4.9517   -1.1410   14.8378 H   0  0  0  0  0  0  0  0  0  0  0  0
    4.9143   -2.8836   14.9371 H   0  0  0  0  0  0  0  0  0  0  0  0
  1  2  1  0
  2  3  2  0
  2  4  1  0
  4  5  1  0
  5  6  1  0
  5  7  1  0
  7  8  2  0
  7  9  1  0
  9 10  1  0
 10 11  1  0
 11 12  1  0
 12 13  1  0
 13 14  1  0
 14 15  1  0
 15 16  1  0
 16 17  2  0
 17 18  1  0
 18 19  2  0
 19 20  1  0
 20 21  2  0
 21 22  1  0
 22 23  2  0
 23 24  1  0
 14 25  1  0
 25 11  1  0
 24 16  1  0
 23 18  1  0
  1 26  1  0
  1 27  1  0
  1 28  1  0
  4 29  1  0
  5 30  1  0
  6 31  1  0
  6 32  1  0
  6 33  1  0
  9 34  1  0
 10 35  1  0
 10 36  1  0
 11 37  1  0
 12 38  1  0
 12 39  1  0
 13 40  1  0
 13 41  1  0
 15 42  1  0
 15 43  1  0
 19 44  1  0
 20 45  1  0
 21 46  1  0
 22 47  1  0
 25 48  1  0
 25 49  1  0
M  END
>  <Energy>  (309) 
79.919219924059973

>  <compound_id>  (309) 
10273

>  <target_id>  (309) 
1

>  <reference_id>  (309) 
2

>  <inspiration_ids>  (309) 
[124, 2]

>  <energy_score>  (309) 
-16.503888217508194

>  <distance_score>  (309) 
14.364714436394907

>  <path>  (309) 
/opt/xchem-fragalysis-2/maxwin/BulkDock/SCRATCH/511015/C10273-P2/C10273-P2.minimised.mol

>  <scratch_subdir>  (309) 
/opt/xchem-fragalysis-2/maxwin/BulkDock/SCRATCH/511015/C10273-P2

>  <fragmenstein_runtime>  (309) 
36.250221967697144

>  <fragmenstein_outcome>  (309) 
too moved

>  <fragmenstein_mode>  (309) 
expansion

>  <fragmenstein_error>  (309) 


$$$$
C14015-P2
     RDKit          3D

 53 55  0  0  0  0  0  0  0  0999 V2000
   -9.4711   -4.0035    4.1586 C   0  0  0  0  0  0  0  0  0  0  0  0
  -10.5150   -5.0104    4.9548 C   0  0  0  0  0  0  0  0  0  0  0  0
  -11.1651   -5.6528    3.6060 C   0  0  0  0  0  0  0  0  0  0  0  0
  -11.0916   -3.8031    5.8299 C   0  0  0  0  0  0  0  0  0  0  0  0
   -9.9183   -6.4422    6.0821 C   0  0  0  0  0  0  0  0  0  0  0  0
  -10.0760   -8.4909    5.9860 C   0  0  0  0  0  0  0  0  0  0  0  0
   -9.5556  -10.4537    6.4867 N   0  0  0  0  0  0  0  0  0  0  0  0
  -10.0073  -12.1320    6.0898 C   0  0  0  0  0  0  0  0  0  0  0  0
  -10.2771  -13.4679    7.1689 N   0  0  0  0  0  0  0  0  0  0  0  0
  -11.6658  -14.5844    6.3923 C   0  0  0  0  0  0  0  0  0  0  0  0
  -12.0996  -15.8681    6.4532 C   0  0  0  0  0  0  0  0  0  0  0  0
  -12.7145  -16.4886    5.3005 C   0  0  0  0  0  0  0  0  0  0  0  0
  -13.2598  -15.7613    4.2669 C   0  0  0  0  0  0  0  0  0  0  0  0
  -13.1338  -14.4004    4.3263 C   0  0  0  0  0  0  0  0  0  0  0  0
  -12.2794  -13.9995    5.3382 C   0  0  0  0  0  0  0  0  0  0  0  0
  -11.7869  -12.7555    5.5719 O   0  0  0  0  0  0  0  0  0  0  0  0
   -8.6560   -5.4504    6.3346 N   0  0  0  0  0  0  0  0  0  0  0  0
   -8.4050   -4.4784    7.3656 C   0  0  0  0  0  0  0  0  0  0  0  0
   -9.0223   -4.2116    8.3499 O   0  0  0  0  0  0  0  0  0  0  0  0
   -7.1577   -3.6040    6.9993 C   0  0  0  0  0  0  0  0  0  0  0  0
   -7.4798   -2.1779    7.1917 N   0  0  0  0  0  0  0  0  0  0  0  0
   -8.0634   -1.4255    6.0946 C   0  0  0  0  0  0  0  0  0  0  0  0
   -7.6406    0.0240    6.3061 C   0  0  0  0  0  0  0  0  0  0  0  0
   -7.1960    0.0864    7.7483 C   0  0  0  0  0  0  0  0  0  0  0  0
   -6.6980   -1.3156    8.0447 C   0  0  0  0  0  0  0  0  0  0  0  0
   -8.5734   -3.7511    4.7049 H   0  0  0  0  0  0  0  0  0  0  0  0
   -9.9506   -3.0466    3.9089 H   0  0  0  0  0  0  0  0  0  0  0  0
   -9.1838   -4.3335    3.1551 H   0  0  0  0  0  0  0  0  0  0  0  0
  -10.4841   -6.3465    3.1028 H   0  0  0  0  0  0  0  0  0  0  0  0
  -11.3590   -4.8942    2.8347 H   0  0  0  0  0  0  0  0  0  0  0  0
  -12.0730   -6.2371    3.7617 H   0  0  0  0  0  0  0  0  0  0  0  0
  -11.3612   -2.9197    5.2339 H   0  0  0  0  0  0  0  0  0  0  0  0
  -10.3449   -3.4077    6.5121 H   0  0  0  0  0  0  0  0  0  0  0  0
  -11.9636   -3.9700    6.4399 H   0  0  0  0  0  0  0  0  0  0  0  0
  -10.0946   -6.7671    5.0638 H   0  0  0  0  0  0  0  0  0  0  0  0
   -9.6482   -8.5447    6.9979 H   0  0  0  0  0  0  0  0  0  0  0  0
   -9.8821   -8.7512    4.9733 H   0  0  0  0  0  0  0  0  0  0  0  0
   -9.4175  -10.4602    7.5051 H   0  0  0  0  0  0  0  0  0  0  0  0
  -11.8130  -16.3852    7.3406 H   0  0  0  0  0  0  0  0  0  0  0  0
  -12.8224  -17.5688    5.2535 H   0  0  0  0  0  0  0  0  0  0  0  0
  -13.7902  -16.2485    3.4572 H   0  0  0  0  0  0  0  0  0  0  0  0
  -13.5140  -13.7177    3.5814 H   0  0  0  0  0  0  0  0  0  0  0  0
   -7.8748   -5.4582    5.6893 H   0  0  0  0  0  0  0  0  0  0  0  0
   -6.8916   -3.7641    5.9547 H   0  0  0  0  0  0  0  0  0  0  0  0
   -6.2840   -3.9209    7.5407 H   0  0  0  0  0  0  0  0  0  0  0  0
   -9.1541   -1.4972    6.1362 H   0  0  0  0  0  0  0  0  0  0  0  0
   -7.7405   -1.7564    5.1043 H   0  0  0  0  0  0  0  0  0  0  0  0
   -6.8050    0.2840    5.6479 H   0  0  0  0  0  0  0  0  0  0  0  0
   -8.4545    0.7258    6.0990 H   0  0  0  0  0  0  0  0  0  0  0  0
   -8.0549    0.3239    8.3886 H   0  0  0  0  0  0  0  0  0  0  0  0
   -6.4290    0.8484    7.9155 H   0  0  0  0  0  0  0  0  0  0  0  0
   -5.6227   -1.3820    7.8709 H   0  0  0  0  0  0  0  0  0  0  0  0
   -6.8844   -1.5140    9.0932 H   0  0  0  0  0  0  0  0  0  0  0  0
  1  2  1  0
  2  3  1  0
  2  4  1  0
  2  5  1  0
  5  6  1  0
  6  7  1  0
  7  8  1  0
  8  9  2  0
  9 10  1  0
 10 11  2  0
 11 12  1  0
 12 13  2  0
 13 14  1  0
 14 15  2  0
 15 16  1  0
  5 17  1  0
 17 18  1  0
 18 19  2  0
 18 20  1  0
 20 21  1  0
 21 22  1  0
 22 23  1  0
 23 24  1  0
 24 25  1  0
 16  8  1  0
 25 21  1  0
 15 10  1  0
  1 26  1  0
  1 27  1  0
  1 28  1  0
  3 29  1  0
  3 30  1  0
  3 31  1  0
  4 32  1  0
  4 33  1  0
  4 34  1  0
  5 35  1  0
  6 36  1  0
  6 37  1  0
  7 38  1  0
 11 39  1  0
 12 40  1  0
 13 41  1  0
 14 42  1  0
 17 43  1  0
 20 44  1  0
 20 45  1  0
 22 46  1  0
 22 47  1  0
 23 48  1  0
 23 49  1  0
 24 50  1  0
 24 51  1  0
 25 52  1  0
 25 53  1  0
M  END
>  <Energy>  (310) 
886.2056280061762

>  <compound_id>  (310) 
14015

>  <target_id>  (310) 
1

>  <reference_id>  (310) 
2

>  <inspiration_ids>  (310) 
[2, 99]

>  <energy_score>  (310) 
797.270223460232

>  <distance_score>  (310) 
6.8666809992434334

>  <path>  (310) 
/opt/xchem-fragalysis-2/maxwin/BulkDock/SCRATCH/511015/C14015-P2/C14015-P2.minimised.mol

>  <scratch_subdir>  (310) 
/opt/xchem-fragalysis-2/maxwin/BulkDock/SCRATCH/511015/C14015-P2

>  <fragmenstein_runtime>  (310) 
27.32174253463745

>  <fragmenstein_outcome>  (310) 
too moved

>  <fragmenstein_mode>  (310) 
expansion

>  <fragmenstein_error>  (310) 


$$$$
C14015-P99
     RDKit          3D

 53 55  0  0  0  0  0  0  0  0999 V2000
   -8.1505   -4.6492    7.9772 C   0  0  0  0  0  0  0  0  0  0  0  0
   -8.3792   -5.3550    6.6041 C   0  0  0  0  0  0  0  0  0  0  0  0
   -8.3631   -3.9710    5.5273 C   0  0  0  0  0  0  0  0  0  0  0  0
   -6.9866   -5.5232    6.0560 C   0  0  0  0  0  0  0  0  0  0  0  0
   -9.7931   -6.7772    6.5868 C   0  0  0  0  0  0  0  0  0  0  0  0
   -9.6328   -8.9086    7.1146 C   0  0  0  0  0  0  0  0  0  0  0  0
   -9.4575  -10.9770    6.7127 N   0  0  0  0  0  0  0  0  0  0  0  0
   -9.9089  -12.8893    6.8209 C   0  0  0  0  0  0  0  0  0  0  0  0
   -9.6615  -14.3882    6.8479 N   0  0  0  0  0  0  0  0  0  0  0  0
  -11.0220  -15.6992    6.0790 C   0  0  0  0  0  0  0  0  0  0  0  0
  -11.1739  -17.3107    5.1823 C   0  0  0  0  0  0  0  0  0  0  0  0
  -10.4934  -18.8477    5.7993 C   0  0  0  0  0  0  0  0  0  0  0  0
  -10.5247  -18.5390    7.5948 C   0  0  0  0  0  0  0  0  0  0  0  0
  -11.5727  -16.9583    7.6797 C   0  0  0  0  0  0  0  0  0  0  0  0
  -12.0802  -15.5284    6.8775 C   0  0  0  0  0  0  0  0  0  0  0  0
  -11.6287  -13.7523    6.7821 O   0  0  0  0  0  0  0  0  0  0  0  0
  -10.4790   -5.2439    5.8518 N   0  0  0  0  0  0  0  0  0  0  0  0
  -10.5593   -3.7442    6.4410 C   0  0  0  0  0  0  0  0  0  0  0  0
  -10.2640   -3.3221    7.5335 O   0  0  0  0  0  0  0  0  0  0  0  0
  -10.9697   -2.5050    5.4623 C   0  0  0  0  0  0  0  0  0  0  0  0
  -10.0968   -1.2836    5.5584 N   0  0  0  0  0  0  0  0  0  0  0  0
   -9.7077   -0.7080    6.8357 C   0  0  0  0  0  0  0  0  0  0  0  0
   -8.7495    0.4057    6.4305 C   0  0  0  0  0  0  0  0  0  0  0  0
   -8.0384   -0.1800    5.2231 C   0  0  0  0  0  0  0  0  0  0  0  0
   -9.1258   -0.9876    4.5219 C   0  0  0  0  0  0  0  0  0  0  0  0
   -7.8185   -3.6120    7.8576 H   0  0  0  0  0  0  0  0  0  0  0  0
   -9.0158   -4.5985    8.6253 H   0  0  0  0  0  0  0  0  0  0  0  0
   -7.3563   -5.1057    8.5571 H   0  0  0  0  0  0  0  0  0  0  0  0
   -8.9813   -4.0636    4.6314 H   0  0  0  0  0  0  0  0  0  0  0  0
   -7.3915   -3.6603    5.0995 H   0  0  0  0  0  0  0  0  0  0  0  0
   -8.5061   -3.0596    6.0940 H   0  0  0  0  0  0  0  0  0  0  0  0
   -6.7982   -5.3423    4.9882 H   0  0  0  0  0  0  0  0  0  0  0  0
   -6.6977   -6.5303    6.1626 H   0  0  0  0  0  0  0  0  0  0  0  0
   -6.3110   -4.7909    6.5111 H   0  0  0  0  0  0  0  0  0  0  0  0
  -10.0729   -7.0840    5.5657 H   0  0  0  0  0  0  0  0  0  0  0  0
  -10.1437   -9.1820    8.0419 H   0  0  0  0  0  0  0  0  0  0  0  0
   -9.8899   -8.8151    5.9810 H   0  0  0  0  0  0  0  0  0  0  0  0
   -9.7905  -10.8968    5.7292 H   0  0  0  0  0  0  0  0  0  0  0  0
  -12.1671  -17.4294    4.7294 H   0  0  0  0  0  0  0  0  0  0  0  0
  -10.6488  -19.8344    5.3859 H   0  0  0  0  0  0  0  0  0  0  0  0
  -10.5271  -19.3219    8.3445 H   0  0  0  0  0  0  0  0  0  0  0  0
  -12.2003  -17.0044    8.6327 H   0  0  0  0  0  0  0  0  0  0  0  0
  -10.7273   -5.2358    4.8712 H   0  0  0  0  0  0  0  0  0  0  0  0
  -10.8916   -2.7965    4.4109 H   0  0  0  0  0  0  0  0  0  0  0  0
  -11.9506   -2.1279    5.7735 H   0  0  0  0  0  0  0  0  0  0  0  0
   -9.1436   -1.3927    7.4727 H   0  0  0  0  0  0  0  0  0  0  0  0
  -10.5630   -0.3191    7.3957 H   0  0  0  0  0  0  0  0  0  0  0  0
   -9.3087    1.3034    6.1396 H   0  0  0  0  0  0  0  0  0  0  0  0
   -8.0554    0.6753    7.2319 H   0  0  0  0  0  0  0  0  0  0  0  0
   -7.2302   -0.8430    5.5549 H   0  0  0  0  0  0  0  0  0  0  0  0
   -7.6090    0.5930    4.5793 H   0  0  0  0  0  0  0  0  0  0  0  0
   -9.6068   -0.3744    3.7513 H   0  0  0  0  0  0  0  0  0  0  0  0
   -8.6997   -1.8591    4.0209 H   0  0  0  0  0  0  0  0  0  0  0  0
  1  2  1  0
  2  3  1  0
  2  4  1  0
  2  5  1  0
  5  6  1  0
  6  7  1  0
  7  8  1  0
  8  9  2  0
  9 10  1  0
 10 11  2  0
 11 12  1  0
 12 13  2  0
 13 14  1  0
 14 15  2  0
 15 16  1  0
  5 17  1  0
 17 18  1  0
 18 19  2  0
 18 20  1  0
 20 21  1  0
 21 22  1  0
 22 23  1  0
 23 24  1  0
 24 25  1  0
 16  8  1  0
 25 21  1  0
 15 10  1  0
  1 26  1  0
  1 27  1  0
  1 28  1  0
  3 29  1  0
  3 30  1  0
  3 31  1  0
  4 32  1  0
  4 33  1  0
  4 34  1  0
  5 35  1  0
  6 36  1  0
  6 37  1  0
  7 38  1  0
 11 39  1  0
 12 40  1  0
 13 41  1  0
 14 42  1  0
 17 43  1  0
 20 44  1  0
 20 45  1  0
 22 46  1  0
 22 47  1  0
 23 48  1  0
 23 49  1  0
 24 50  1  0
 24 51  1  0
 25 52  1  0
 25 53  1  0
M  END
>  <Energy>  (311) 
1689.6369788270194

>  <compound_id>  (311) 
14015

>  <target_id>  (311) 
1

>  <reference_id>  (311) 
99

>  <inspiration_ids>  (311) 
[2, 99]

>  <energy_score>  (311) 
1600.70157428113

>  <distance_score>  (311) 
6.094050606471551

>  <path>  (311) 
/opt/xchem-fragalysis-2/maxwin/BulkDock/SCRATCH/511015/C14015-P99/C14015-P99.minimised.mol

>  <scratch_subdir>  (311) 
/opt/xchem-fragalysis-2/maxwin/BulkDock/SCRATCH/511015/C14015-P99

>  <fragmenstein_runtime>  (311) 
27.559154272079468

>  <fragmenstein_outcome>  (311) 
too moved

>  <fragmenstein_mode>  (311) 
expansion

>  <fragmenstein_error>  (311) 


$$$$
C69324-P2
     RDKit          3D

 44 46  0  0  0  0  0  0  0  0999 V2000
   -6.8570   -5.8181    9.3254 C   0  0  0  0  0  0  0  0  0  0  0  0
   -6.7493   -7.7246    9.3744 C   0  0  0  0  0  0  0  0  0  0  0  0
   -5.1738   -8.4809    9.3318 C   0  0  0  0  0  0  0  0  0  0  0  0
   -4.1552   -6.8442   10.1237 C   0  0  0  0  0  0  0  0  0  0  0  0
   -3.7714   -5.0931    9.5649 N   0  0  0  0  0  0  0  0  0  0  0  0
   -3.5346   -4.4903    8.1182 C   0  0  0  0  0  0  0  0  0  0  0  0
   -3.4557   -5.0361    7.0635 O   0  0  0  0  0  0  0  0  0  0  0  0
   -3.5178   -2.8276    7.9542 C   0  0  0  0  0  0  0  0  0  0  0  0
   -2.8020   -1.6475    8.1489 C   0  0  0  0  0  0  0  0  0  0  0  0
   -3.5059   -0.5176    8.2644 N   0  0  0  0  0  0  0  0  0  0  0  0
   -4.7508   -0.8972    8.1006 N   0  0  0  0  0  0  0  0  0  0  0  0
   -4.8060   -2.2213    7.8362 C   0  0  0  0  0  0  0  0  0  0  0  0
   -5.4054  -10.2597    8.4713 N   0  0  0  0  0  0  0  0  0  0  0  0
   -4.2063  -11.8010    8.3024 C   0  0  0  0  0  0  0  0  0  0  0  0
   -3.0824  -11.7228    8.6546 O   0  0  0  0  0  0  0  0  0  0  0  0
   -4.7563  -13.5894    7.8133 C   0  0  0  0  0  0  0  0  0  0  0  0
   -5.6659  -14.0461    8.6256 C   0  0  0  0  0  0  0  0  0  0  0  0
   -7.0412  -14.8841    8.0917 C   0  0  0  0  0  0  0  0  0  0  0  0
   -7.4413  -16.1500    8.4178 C   0  0  0  0  0  0  0  0  0  0  0  0
   -7.9590  -17.4365    7.9305 N   0  0  0  0  0  0  0  0  0  0  0  0
   -7.3679  -18.3141    8.6166 C   0  0  0  0  0  0  0  0  0  0  0  0
   -7.9314  -19.7644    9.0665 C   0  0  0  0  0  0  0  0  0  0  0  0
   -6.1616  -17.6220    8.9080 O   0  0  0  0  0  0  0  0  0  0  0  0
   -6.4683  -15.8444    9.1581 C   0  0  0  0  0  0  0  0  0  0  0  0
   -4.8971  -14.8255    8.5454 C   0  0  0  0  0  0  0  0  0  0  0  0
   -6.8505   -5.2380    8.3821 H   0  0  0  0  0  0  0  0  0  0  0  0
   -6.2072   -5.6600   10.1063 H   0  0  0  0  0  0  0  0  0  0  0  0
   -7.6721   -5.1951    9.6423 H   0  0  0  0  0  0  0  0  0  0  0  0
   -7.1124   -8.1071   10.2967 H   0  0  0  0  0  0  0  0  0  0  0  0
   -7.3838   -8.1488    8.5877 H   0  0  0  0  0  0  0  0  0  0  0  0
   -5.0906   -8.9411   10.3194 H   0  0  0  0  0  0  0  0  0  0  0  0
   -4.9171   -6.5478   10.8470 H   0  0  0  0  0  0  0  0  0  0  0  0
   -3.6794   -6.5230    9.1708 H   0  0  0  0  0  0  0  0  0  0  0  0
   -3.6997   -4.3760   10.2342 H   0  0  0  0  0  0  0  0  0  0  0  0
   -1.7786   -1.4923    8.3050 H   0  0  0  0  0  0  0  0  0  0  0  0
   -5.5009   -0.2128    8.1345 H   0  0  0  0  0  0  0  0  0  0  0  0
   -5.7732   -2.6835    7.6466 H   0  0  0  0  0  0  0  0  0  0  0  0
   -6.3331  -10.4857    8.0290 H   0  0  0  0  0  0  0  0  0  0  0  0
   -5.8905  -13.9185    9.7246 H   0  0  0  0  0  0  0  0  0  0  0  0
   -6.8157  -14.5072    7.0560 H   0  0  0  0  0  0  0  0  0  0  0  0
   -7.8637  -20.5848    8.3719 H   0  0  0  0  0  0  0  0  0  0  0  0
   -9.0362  -19.7613    9.0665 H   0  0  0  0  0  0  0  0  0  0  0  0
   -7.5835  -20.0351   10.0678 H   0  0  0  0  0  0  0  0  0  0  0  0
   -4.1710  -15.6505    8.2211 H   0  0  0  0  0  0  0  0  0  0  0  0
  1  2  1  0
  2  3  1  0
  3  4  1  0
  4  5  1  0
  5  6  1  0
  6  7  2  0
  6  8  1  0
  8  9  1  0
  9 10  2  0
 10 11  1  0
 11 12  1  0
  3 13  1  0
 13 14  1  0
 14 15  2  0
 14 16  1  0
 16 17  2  0
 17 18  1  0
 18 19  2  0
 19 20  1  0
 20 21  2  0
 21 22  1  0
 21 23  1  0
 23 24  1  0
 24 25  2  0
 12  8  2  0
 25 16  1  0
 24 19  1  0
  1 26  1  0
  1 27  1  0
  1 28  1  0
  2 29  1  0
  2 30  1  0
  3 31  1  0
  4 32  1  0
  4 33  1  0
  5 34  1  0
  9 35  1  0
 11 36  1  0
 12 37  1  0
 13 38  1  0
 17 39  1  0
 18 40  1  0
 22 41  1  0
 22 42  1  0
 22 43  1  0
 25 44  1  0
M  END
>  <Energy>  (312) 
1242.5138826399848

>  <compound_id>  (312) 
69324

>  <target_id>  (312) 
1

>  <reference_id>  (312) 
2

>  <inspiration_ids>  (312) 
[2, 99]

>  <energy_score>  (312) 
1189.9447351769227

>  <distance_score>  (312) 
6.39299781043407

>  <path>  (312) 
/opt/xchem-fragalysis-2/maxwin/BulkDock/SCRATCH/511015/C69324-P2/C69324-P2.minimised.mol

>  <scratch_subdir>  (312) 
/opt/xchem-fragalysis-2/maxwin/BulkDock/SCRATCH/511015/C69324-P2

>  <fragmenstein_runtime>  (312) 
20.976253032684326

>  <fragmenstein_outcome>  (312) 
too moved

>  <fragmenstein_mode>  (312) 
expansion

>  <fragmenstein_error>  (312) 


$$$$
C69324-P99
     RDKit          3D

 44 46  0  0  0  0  0  0  0  0999 V2000
   -5.3083   -6.9319   10.7553 C   0  0  0  0  0  0  0  0  0  0  0  0
   -5.5333   -8.2785   10.1983 C   0  0  0  0  0  0  0  0  0  0  0  0
   -5.6417   -8.6501    8.7349 C   0  0  0  0  0  0  0  0  0  0  0  0
   -7.3344   -7.7163    8.3604 C   0  0  0  0  0  0  0  0  0  0  0  0
   -7.7607   -6.0055    7.4246 N   0  0  0  0  0  0  0  0  0  0  0  0
   -8.1960   -4.7480    7.9176 C   0  0  0  0  0  0  0  0  0  0  0  0
   -8.4948   -4.4099    9.0076 O   0  0  0  0  0  0  0  0  0  0  0  0
   -8.3361   -3.7955    6.8336 C   0  0  0  0  0  0  0  0  0  0  0  0
   -7.5978   -2.6275    6.5640 C   0  0  0  0  0  0  0  0  0  0  0  0
   -8.0406   -1.9799    5.4798 N   0  0  0  0  0  0  0  0  0  0  0  0
   -9.1416   -2.6737    5.1344 N   0  0  0  0  0  0  0  0  0  0  0  0
   -9.3185   -3.8036    5.8688 C   0  0  0  0  0  0  0  0  0  0  0  0
   -5.7529  -10.3142    8.2556 N   0  0  0  0  0  0  0  0  0  0  0  0
   -4.4107  -11.7876    8.1374 C   0  0  0  0  0  0  0  0  0  0  0  0
   -3.2871  -11.5322    8.3346 O   0  0  0  0  0  0  0  0  0  0  0  0
   -4.9789  -13.7111    7.8942 C   0  0  0  0  0  0  0  0  0  0  0  0
   -4.6762  -14.9949    7.3952 C   0  0  0  0  0  0  0  0  0  0  0  0
   -4.3384  -16.8208    7.6886 C   0  0  0  0  0  0  0  0  0  0  0  0
   -5.9425  -17.5900    8.2888 C   0  0  0  0  0  0  0  0  0  0  0  0
   -6.6897  -18.5964    8.5472 N   0  0  0  0  0  0  0  0  0  0  0  0
   -7.8835  -18.2608    8.0519 C   0  0  0  0  0  0  0  0  0  0  0  0
   -9.1896  -19.1665    7.7497 C   0  0  0  0  0  0  0  0  0  0  0  0
   -7.7600  -16.9657    7.8246 O   0  0  0  0  0  0  0  0  0  0  0  0
   -6.7968  -16.1464    8.6855 C   0  0  0  0  0  0  0  0  0  0  0  0
   -6.0585  -14.5711    8.4645 C   0  0  0  0  0  0  0  0  0  0  0  0
   -5.9836   -6.2881   10.2317 H   0  0  0  0  0  0  0  0  0  0  0  0
   -5.4101   -6.8682   11.8406 H   0  0  0  0  0  0  0  0  0  0  0  0
   -4.4131   -6.5273   10.3671 H   0  0  0  0  0  0  0  0  0  0  0  0
   -4.9562   -8.9866   10.7423 H   0  0  0  0  0  0  0  0  0  0  0  0
   -6.5856   -8.2518   10.3932 H   0  0  0  0  0  0  0  0  0  0  0  0
   -5.0031   -8.4657    8.0360 H   0  0  0  0  0  0  0  0  0  0  0  0
   -7.0275   -8.1694    7.4509 H   0  0  0  0  0  0  0  0  0  0  0  0
   -8.2289   -8.2985    8.5641 H   0  0  0  0  0  0  0  0  0  0  0  0
   -7.5073   -5.9061    6.4304 H   0  0  0  0  0  0  0  0  0  0  0  0
   -6.7514   -2.2289    7.1077 H   0  0  0  0  0  0  0  0  0  0  0  0
   -9.7312   -2.3209    4.3876 H   0  0  0  0  0  0  0  0  0  0  0  0
  -10.1452   -4.4732    5.6802 H   0  0  0  0  0  0  0  0  0  0  0  0
   -6.6826  -10.6712    7.9711 H   0  0  0  0  0  0  0  0  0  0  0  0
   -4.9807  -14.8481    6.3174 H   0  0  0  0  0  0  0  0  0  0  0  0
   -3.4573  -17.2130    8.2266 H   0  0  0  0  0  0  0  0  0  0  0  0
   -9.2425  -19.5388    6.7225 H   0  0  0  0  0  0  0  0  0  0  0  0
  -10.1248  -18.6914    8.0158 H   0  0  0  0  0  0  0  0  0  0  0  0
   -9.2447  -19.9780    8.4680 H   0  0  0  0  0  0  0  0  0  0  0  0
   -6.6598  -14.5395    7.4746 H   0  0  0  0  0  0  0  0  0  0  0  0
  1  2  1  0
  2  3  1  0
  3  4  1  0
  4  5  1  0
  5  6  1  0
  6  7  2  0
  6  8  1  0
  8  9  1  0
  9 10  2  0
 10 11  1  0
 11 12  1  0
  3 13  1  0
 13 14  1  0
 14 15  2  0
 14 16  1  0
 16 17  2  0
 17 18  1  0
 18 19  2  0
 19 20  1  0
 20 21  2  0
 21 22  1  0
 21 23  1  0
 23 24  1  0
 24 25  2  0
 12  8  2  0
 25 16  1  0
 24 19  1  0
  1 26  1  0
  1 27  1  0
  1 28  1  0
  2 29  1  0
  2 30  1  0
  3 31  1  0
  4 32  1  0
  4 33  1  0
  5 34  1  0
  9 35  1  0
 11 36  1  0
 12 37  1  0
 13 38  1  0
 17 39  1  0
 18 40  1  0
 22 41  1  0
 22 42  1  0
 22 43  1  0
 25 44  1  0
M  END
>  <Energy>  (313) 
897.85649767604627

>  <compound_id>  (313) 
69324

>  <target_id>  (313) 
1

>  <reference_id>  (313) 
99

>  <inspiration_ids>  (313) 
[2, 99]

>  <energy_score>  (313) 
845.2873502130083

>  <distance_score>  (313) 
5.843239726051896

>  <path>  (313) 
/opt/xchem-fragalysis-2/maxwin/BulkDock/SCRATCH/511015/C69324-P99/C69324-P99.minimised.mol

>  <scratch_subdir>  (313) 
/opt/xchem-fragalysis-2/maxwin/BulkDock/SCRATCH/511015/C69324-P99

>  <fragmenstein_runtime>  (313) 
12.844238758087158

>  <fragmenstein_outcome>  (313) 
too moved

>  <fragmenstein_mode>  (313) 
expansion

>  <fragmenstein_error>  (313) 


$$$$
C69328-P2
     RDKit          3D

 44 48  0  0  0  0  0  0  0  0999 V2000
  -10.0950   -3.0822    5.3897 O   0  0  0  0  0  0  0  0  0  0  0  0
   -9.8413   -3.2407    6.9061 C   0  0  0  0  0  0  0  0  0  0  0  0
   -9.3479   -4.7434    7.9826 N   0  0  0  0  0  0  0  0  0  0  0  0
   -9.1219   -6.6305    7.5464 C   0  0  0  0  0  0  0  0  0  0  0  0
   -7.6347   -5.7607    6.8219 C   0  0  0  0  0  0  0  0  0  0  0  0
   -7.0221   -4.8169    7.8233 C   0  0  0  0  0  0  0  0  0  0  0  0
   -6.9639   -5.7725    9.1035 C   0  0  0  0  0  0  0  0  0  0  0  0
   -7.6563   -7.5752    8.5867 C   0  0  0  0  0  0  0  0  0  0  0  0
   -7.2680   -9.1100    8.2516 C   0  0  0  0  0  0  0  0  0  0  0  0
   -8.6604  -10.6261    7.9290 N   0  0  0  0  0  0  0  0  0  0  0  0
   -9.0713  -12.5053    8.1582 C   0  0  0  0  0  0  0  0  0  0  0  0
   -8.5609  -13.6889    9.2744 N   0  0  0  0  0  0  0  0  0  0  0  0
   -7.0335  -14.8706    8.8475 C   0  0  0  0  0  0  0  0  0  0  0  0
   -6.8986  -16.3418    8.7519 C   0  0  0  0  0  0  0  0  0  0  0  0
   -7.6402  -17.6956    7.5988 C   0  0  0  0  0  0  0  0  0  0  0  0
   -8.7020  -18.4813    7.6441 C   0  0  0  0  0  0  0  0  0  0  0  0
   -8.2955  -17.4402    8.2099 C   0  0  0  0  0  0  0  0  0  0  0  0
   -7.5664  -15.6041    7.8841 C   0  0  0  0  0  0  0  0  0  0  0  0
   -8.7281  -14.0915    7.3191 O   0  0  0  0  0  0  0  0  0  0  0  0
   -9.3706   -8.7537    7.9935 C   0  0  0  0  0  0  0  0  0  0  0  0
  -10.1063   -2.1778    7.4908 C   0  0  0  0  0  0  0  0  0  0  0  0
   -8.5457   -2.3998    6.6917 C   0  0  0  0  0  0  0  0  0  0  0  0
   -8.3684   -3.7210    5.7941 N   0  0  0  0  0  0  0  0  0  0  0  0
   -9.9459   -4.7327    5.9167 N   0  0  0  0  0  0  0  0  0  0  0  0
  -11.0483   -3.5106    6.9310 C   0  0  0  0  0  0  0  0  0  0  0  0
   -9.3556   -4.4739    8.9674 H   0  0  0  0  0  0  0  0  0  0  0  0
   -7.7453   -5.3824    5.8569 H   0  0  0  0  0  0  0  0  0  0  0  0
   -6.8871   -6.4103    6.3814 H   0  0  0  0  0  0  0  0  0  0  0  0
   -6.1601   -4.3071    7.3697 H   0  0  0  0  0  0  0  0  0  0  0  0
   -7.5446   -3.9139    8.1134 H   0  0  0  0  0  0  0  0  0  0  0  0
   -6.1254   -5.9439    9.7653 H   0  0  0  0  0  0  0  0  0  0  0  0
   -7.5751   -5.1631    9.7173 H   0  0  0  0  0  0  0  0  0  0  0  0
   -7.6785   -7.9810    9.6045 H   0  0  0  0  0  0  0  0  0  0  0  0
   -6.2417   -9.5644    8.0276 H   0  0  0  0  0  0  0  0  0  0  0  0
   -6.7833   -8.6450    7.3786 H   0  0  0  0  0  0  0  0  0  0  0  0
   -6.2510  -17.3285    8.9577 H   0  0  0  0  0  0  0  0  0  0  0  0
   -7.2689  -18.0608    6.6283 H   0  0  0  0  0  0  0  0  0  0  0  0
   -9.0636  -18.9420    6.7502 H   0  0  0  0  0  0  0  0  0  0  0  0
   -7.5615  -18.4496    9.0342 H   0  0  0  0  0  0  0  0  0  0  0  0
   -9.6980   -8.8452    7.0098 H   0  0  0  0  0  0  0  0  0  0  0  0
  -10.2102   -9.0623    8.6342 H   0  0  0  0  0  0  0  0  0  0  0  0
   -7.7228   -1.6919    6.7036 H   0  0  0  0  0  0  0  0  0  0  0  0
  -10.3442   -4.9841    5.0227 H   0  0  0  0  0  0  0  0  0  0  0  0
  -12.0854   -3.5981    6.6083 H   0  0  0  0  0  0  0  0  0  0  0  0
  1  2  2  0
  2  3  1  0
  3  4  1  0
  4  5  1  0
  5  6  1  0
  6  7  1  0
  7  8  1  0
  8  9  1  0
  9 10  1  0
 10 11  1  0
 11 12  2  0
 12 13  1  0
 13 14  2  0
 14 15  1  0
 15 16  2  0
 16 17  1  0
 17 18  2  0
 18 19  1  0
 10 20  1  0
  2 21  1  0
 21 22  1  0
 22 23  2  0
 23 24  1  0
 24 25  1  0
  8  4  1  0
 19 11  1  0
 25 21  2  0
 20  4  1  0
 18 13  1  0
  3 26  1  0
  5 27  1  0
  5 28  1  0
  6 29  1  0
  6 30  1  0
  7 31  1  0
  7 32  1  0
  8 33  1  0
  9 34  1  0
  9 35  1  0
 14 36  1  0
 15 37  1  0
 16 38  1  0
 17 39  1  0
 20 40  1  0
 20 41  1  0
 22 42  1  0
 24 43  1  0
 25 44  1  0
M  END
>  <Energy>  (314) 
3328.8500202974974

>  <compound_id>  (314) 
69328

>  <target_id>  (314) 
1

>  <reference_id>  (314) 
2

>  <inspiration_ids>  (314) 
[2, 99]

>  <energy_score>  (314) 
3283.340173187759

>  <distance_score>  (314) 
6.143051458527169

>  <path>  (314) 
/opt/xchem-fragalysis-2/maxwin/BulkDock/SCRATCH/511015/C69328-P2/C69328-P2.minimised.mol

>  <scratch_subdir>  (314) 
/opt/xchem-fragalysis-2/maxwin/BulkDock/SCRATCH/511015/C69328-P2

>  <fragmenstein_runtime>  (314) 
19.779992818832397

>  <fragmenstein_outcome>  (314) 
too moved

>  <fragmenstein_mode>  (314) 
expansion

>  <fragmenstein_error>  (314) 


$$$$
C69328-P99
     RDKit          3D

 44 48  0  0  0  0  0  0  0  0999 V2000
   -7.0326   -5.2674    6.6177 O   0  0  0  0  0  0  0  0  0  0  0  0
   -7.8036   -5.7687    7.4152 C   0  0  0  0  0  0  0  0  0  0  0  0
   -7.6991   -7.6078    7.9802 N   0  0  0  0  0  0  0  0  0  0  0  0
   -6.6342   -8.9577    7.4055 C   0  0  0  0  0  0  0  0  0  0  0  0
   -6.3880   -7.7566    5.6945 C   0  0  0  0  0  0  0  0  0  0  0  0
   -5.8034   -7.8741    3.8315 C   0  0  0  0  0  0  0  0  0  0  0  0
   -4.9483   -8.6515    4.6626 C   0  0  0  0  0  0  0  0  0  0  0  0
   -6.0329   -9.2312    5.6502 C   0  0  0  0  0  0  0  0  0  0  0  0
   -6.6288  -10.4923    6.4862 C   0  0  0  0  0  0  0  0  0  0  0  0
   -7.3926  -12.5995    6.7070 N   0  0  0  0  0  0  0  0  0  0  0  0
   -6.6611  -14.3659    7.1359 C   0  0  0  0  0  0  0  0  0  0  0  0
   -7.1672  -15.5400    8.3416 N   0  0  0  0  0  0  0  0  0  0  0  0
   -7.7744  -17.4034    7.9842 C   0  0  0  0  0  0  0  0  0  0  0  0
   -9.0043  -18.7138    7.8936 C   0  0  0  0  0  0  0  0  0  0  0  0
   -9.5833  -19.7449    6.9905 C   0  0  0  0  0  0  0  0  0  0  0  0
   -9.2760  -19.6891    5.6791 C   0  0  0  0  0  0  0  0  0  0  0  0
   -8.5053  -18.5689    5.4514 C   0  0  0  0  0  0  0  0  0  0  0  0
   -7.8284  -17.5487    6.7683 C   0  0  0  0  0  0  0  0  0  0  0  0
   -7.5890  -15.7394    7.2038 O   0  0  0  0  0  0  0  0  0  0  0  0
   -7.7455  -10.9005    7.6459 C   0  0  0  0  0  0  0  0  0  0  0  0
   -8.8496   -4.8019    7.7349 C   0  0  0  0  0  0  0  0  0  0  0  0
   -8.7235   -3.4145    8.0914 C   0  0  0  0  0  0  0  0  0  0  0  0
   -9.5098   -2.5420    7.4439 N   0  0  0  0  0  0  0  0  0  0  0  0
  -10.1385   -3.3056    6.5619 N   0  0  0  0  0  0  0  0  0  0  0  0
   -9.6551   -4.5755    6.5756 C   0  0  0  0  0  0  0  0  0  0  0  0
   -8.4756   -7.8242    8.5654 H   0  0  0  0  0  0  0  0  0  0  0  0
   -6.2984   -6.8977    6.2703 H   0  0  0  0  0  0  0  0  0  0  0  0
   -6.8919   -6.7755    5.4538 H   0  0  0  0  0  0  0  0  0  0  0  0
   -4.9264   -7.3883    3.3376 H   0  0  0  0  0  0  0  0  0  0  0  0
   -6.3459   -6.9750    3.4892 H   0  0  0  0  0  0  0  0  0  0  0  0
   -4.3341   -9.3124    4.1373 H   0  0  0  0  0  0  0  0  0  0  0  0
   -4.0488   -8.2494    4.9410 H   0  0  0  0  0  0  0  0  0  0  0  0
   -6.3980   -9.3627    4.6352 H   0  0  0  0  0  0  0  0  0  0  0  0
   -6.3799  -10.5017    5.5103 H   0  0  0  0  0  0  0  0  0  0  0  0
   -5.4258   -9.9288    6.8752 H   0  0  0  0  0  0  0  0  0  0  0  0
   -9.9386  -18.6337    8.5110 H   0  0  0  0  0  0  0  0  0  0  0  0
  -10.3501  -20.4167    7.3692 H   0  0  0  0  0  0  0  0  0  0  0  0
   -9.7512  -20.2789    4.9127 H   0  0  0  0  0  0  0  0  0  0  0  0
   -8.6096  -18.1946    4.4352 H   0  0  0  0  0  0  0  0  0  0  0  0
   -8.8757  -10.8617    7.5203 H   0  0  0  0  0  0  0  0  0  0  0  0
   -7.6936  -11.0516    8.5561 H   0  0  0  0  0  0  0  0  0  0  0  0
   -8.0000   -2.9272    8.7000 H   0  0  0  0  0  0  0  0  0  0  0  0
  -10.8213   -2.8959    5.9263 H   0  0  0  0  0  0  0  0  0  0  0  0
   -9.9125   -5.2354    5.7616 H   0  0  0  0  0  0  0  0  0  0  0  0
  1  2  2  0
  2  3  1  0
  3  4  1  0
  4  5  1  0
  5  6  1  0
  6  7  1  0
  7  8  1  0
  8  9  1  0
  9 10  1  0
 10 11  1  0
 11 12  2  0
 12 13  1  0
 13 14  2  0
 14 15  1  0
 15 16  2  0
 16 17  1  0
 17 18  2  0
 18 19  1  0
 10 20  1  0
  2 21  1  0
 21 22  1  0
 22 23  2  0
 23 24  1  0
 24 25  1  0
  8  4  1  0
 19 11  1  0
 25 21  2  0
 20  4  1  0
 18 13  1  0
  3 26  1  0
  5 27  1  0
  5 28  1  0
  6 29  1  0
  6 30  1  0
  7 31  1  0
  7 32  1  0
  8 33  1  0
  9 34  1  0
  9 35  1  0
 14 36  1  0
 15 37  1  0
 16 38  1  0
 17 39  1  0
 20 40  1  0
 20 41  1  0
 22 42  1  0
 24 43  1  0
 25 44  1  0
M  END
>  <Energy>  (315) 
2517.5684818971595

>  <compound_id>  (315) 
69328

>  <target_id>  (315) 
1

>  <reference_id>  (315) 
99

>  <inspiration_ids>  (315) 
[2, 99]

>  <energy_score>  (315) 
2472.0586347874123

>  <distance_score>  (315) 
6.011644703797438

>  <path>  (315) 
/opt/xchem-fragalysis-2/maxwin/BulkDock/SCRATCH/511015/C69328-P99/C69328-P99.minimised.mol

>  <scratch_subdir>  (315) 
/opt/xchem-fragalysis-2/maxwin/BulkDock/SCRATCH/511015/C69328-P99

>  <fragmenstein_runtime>  (315) 
13.435863494873047

>  <fragmenstein_outcome>  (315) 
too moved

>  <fragmenstein_mode>  (315) 
expansion

>  <fragmenstein_error>  (315) 


$$$$
C69349-P2
     RDKit          3D

 44 46  0  0  0  0  0  0  0  0999 V2000
   -7.3436  -16.9940    8.2584 C   0  0  0  0  0  0  0  0  0  0  0  0
   -6.9196  -15.1765    8.5233 C   0  0  0  0  0  0  0  0  0  0  0  0
   -5.9066  -14.6903    9.2298 N   0  0  0  0  0  0  0  0  0  0  0  0
   -4.9860  -14.1201    8.3543 C   0  0  0  0  0  0  0  0  0  0  0  0
   -3.9741  -13.2761    8.5985 C   0  0  0  0  0  0  0  0  0  0  0  0
   -3.7397  -11.9665    7.9626 C   0  0  0  0  0  0  0  0  0  0  0  0
   -4.0839  -11.5445    6.6568 C   0  0  0  0  0  0  0  0  0  0  0  0
   -4.4246   -9.4310    6.6981 C   0  0  0  0  0  0  0  0  0  0  0  0
   -4.9596   -9.1412    7.8128 O   0  0  0  0  0  0  0  0  0  0  0  0
   -3.6607   -7.9836    5.3774 N   0  0  0  0  0  0  0  0  0  0  0  0
   -3.2010   -5.7898    5.7330 C   0  0  0  0  0  0  0  0  0  0  0  0
   -4.3363   -4.3535    6.7986 C   0  0  0  0  0  0  0  0  0  0  0  0
   -3.5437   -4.1717    7.9768 C   0  0  0  0  0  0  0  0  0  0  0  0
   -6.2109   -4.2893    6.8050 N   0  0  0  0  0  0  0  0  0  0  0  0
   -5.9728   -2.9308    7.2940 C   0  0  0  0  0  0  0  0  0  0  0  0
   -7.1622   -4.2522    5.7010 C   0  0  0  0  0  0  0  0  0  0  0  0
   -6.9827   -4.1618    4.5135 O   0  0  0  0  0  0  0  0  0  0  0  0
   -8.5405   -4.2149    6.1663 C   0  0  0  0  0  0  0  0  0  0  0  0
   -9.6432   -3.7971    5.3679 C   0  0  0  0  0  0  0  0  0  0  0  0
  -10.5710   -3.1438    6.0719 N   0  0  0  0  0  0  0  0  0  0  0  0
  -10.0700   -3.1559    7.3061 N   0  0  0  0  0  0  0  0  0  0  0  0
   -8.9468   -3.9178    7.4439 C   0  0  0  0  0  0  0  0  0  0  0  0
   -4.5681  -13.1046    6.0530 C   0  0  0  0  0  0  0  0  0  0  0  0
   -5.2045  -14.0613    7.0304 C   0  0  0  0  0  0  0  0  0  0  0  0
   -6.5516  -14.3968    7.0177 O   0  0  0  0  0  0  0  0  0  0  0  0
   -8.3142  -17.3467    8.5216 H   0  0  0  0  0  0  0  0  0  0  0  0
   -7.5925  -17.4727    7.3378 H   0  0  0  0  0  0  0  0  0  0  0  0
   -6.5191  -17.6416    8.5941 H   0  0  0  0  0  0  0  0  0  0  0  0
   -3.2759  -13.7355    9.2831 H   0  0  0  0  0  0  0  0  0  0  0  0
   -3.0960  -11.3416    8.5696 H   0  0  0  0  0  0  0  0  0  0  0  0
   -3.3422   -8.4487    4.4592 H   0  0  0  0  0  0  0  0  0  0  0  0
   -2.2026   -5.9129    6.0801 H   0  0  0  0  0  0  0  0  0  0  0  0
   -2.9538   -5.3723    4.7099 H   0  0  0  0  0  0  0  0  0  0  0  0
   -4.2530   -3.4310    6.3263 H   0  0  0  0  0  0  0  0  0  0  0  0
   -3.6973   -4.8357    8.8253 H   0  0  0  0  0  0  0  0  0  0  0  0
   -2.7236   -4.5619    7.4471 H   0  0  0  0  0  0  0  0  0  0  0  0
   -3.2394   -3.1339    8.1719 H   0  0  0  0  0  0  0  0  0  0  0  0
   -5.1131   -2.4775    7.7789 H   0  0  0  0  0  0  0  0  0  0  0  0
   -6.5239   -2.2327    6.6398 H   0  0  0  0  0  0  0  0  0  0  0  0
   -6.7752   -2.7330    8.0100 H   0  0  0  0  0  0  0  0  0  0  0  0
   -9.7381   -3.8197    4.2906 H   0  0  0  0  0  0  0  0  0  0  0  0
  -10.6071   -2.7406    8.0635 H   0  0  0  0  0  0  0  0  0  0  0  0
   -8.4767   -4.0071    8.4068 H   0  0  0  0  0  0  0  0  0  0  0  0
   -4.2872  -13.4547    5.0573 H   0  0  0  0  0  0  0  0  0  0  0  0
  1  2  1  0
  2  3  2  0
  3  4  1  0
  4  5  2  0
  5  6  1  0
  6  7  2  0
  7  8  1  0
  8  9  2  0
  8 10  1  0
 10 11  1  0
 11 12  1  0
 12 13  1  0
 12 14  1  0
 14 15  1  0
 14 16  1  0
 16 17  2  0
 16 18  1  0
 18 19  1  0
 19 20  2  0
 20 21  1  0
 21 22  1  0
  7 23  1  0
 23 24  2  0
 24 25  1  0
 25  2  1  0
 24  4  1  0
 22 18  2  0
  1 26  1  0
  1 27  1  0
  1 28  1  0
  5 29  1  0
  6 30  1  0
 10 31  1  0
 11 32  1  0
 11 33  1  0
 12 34  1  0
 13 35  1  0
 13 36  1  0
 13 37  1  0
 15 38  1  0
 15 39  1  0
 15 40  1  0
 19 41  1  0
 21 42  1  0
 22 43  1  0
 23 44  1  0
M  END
>  <Energy>  (316) 
1108.0043180874884

>  <compound_id>  (316) 
69349

>  <target_id>  (316) 
1

>  <reference_id>  (316) 
2

>  <inspiration_ids>  (316) 
[2, 99]

>  <energy_score>  (316) 
1036.0524738572221

>  <distance_score>  (316) 
6.918778458463892

>  <path>  (316) 
/opt/xchem-fragalysis-2/maxwin/BulkDock/SCRATCH/511015/C69349-P2/C69349-P2.minimised.mol

>  <scratch_subdir>  (316) 
/opt/xchem-fragalysis-2/maxwin/BulkDock/SCRATCH/511015/C69349-P2

>  <fragmenstein_runtime>  (316) 
14.776851415634155

>  <fragmenstein_outcome>  (316) 
too moved

>  <fragmenstein_mode>  (316) 
expansion

>  <fragmenstein_error>  (316) 


$$$$
C69349-P99
     RDKit          3D

 44 46  0  0  0  0  0  0  0  0999 V2000
   -7.3738  -17.3172    7.9307 C   0  0  0  0  0  0  0  0  0  0  0  0
   -6.9978  -15.5227    8.3989 C   0  0  0  0  0  0  0  0  0  0  0  0
   -7.0984  -14.7915    7.3244 N   0  0  0  0  0  0  0  0  0  0  0  0
   -5.8286  -14.4011    7.0192 C   0  0  0  0  0  0  0  0  0  0  0  0
   -5.2176  -14.3994    5.7577 C   0  0  0  0  0  0  0  0  0  0  0  0
   -4.3690  -13.1773    5.4836 C   0  0  0  0  0  0  0  0  0  0  0  0
   -3.9786  -12.2895    6.8021 C   0  0  0  0  0  0  0  0  0  0  0  0
   -4.0342  -11.0146    7.3637 C   0  0  0  0  0  0  0  0  0  0  0  0
   -2.8502  -10.8344    8.5755 O   0  0  0  0  0  0  0  0  0  0  0  0
   -4.6884   -9.9717    7.4183 N   0  0  0  0  0  0  0  0  0  0  0  0
   -4.9149   -8.1893    8.5201 C   0  0  0  0  0  0  0  0  0  0  0  0
   -3.8659   -6.0787    8.4807 C   0  0  0  0  0  0  0  0  0  0  0  0
   -4.0009   -5.5059    9.7277 C   0  0  0  0  0  0  0  0  0  0  0  0
   -3.9840   -4.3400    7.2648 N   0  0  0  0  0  0  0  0  0  0  0  0
   -5.9041   -4.3023    7.7040 C   0  0  0  0  0  0  0  0  0  0  0  0
   -3.4741   -3.0307    7.4841 C   0  0  0  0  0  0  0  0  0  0  0  0
   -2.9596   -2.5440    8.4373 O   0  0  0  0  0  0  0  0  0  0  0  0
   -3.7901   -2.2287    6.3010 C   0  0  0  0  0  0  0  0  0  0  0  0
   -4.4383   -2.5742    5.0824 C   0  0  0  0  0  0  0  0  0  0  0  0
   -4.8231   -1.5183    4.3643 N   0  0  0  0  0  0  0  0  0  0  0  0
   -4.5016   -0.4907    5.1589 N   0  0  0  0  0  0  0  0  0  0  0  0
   -3.9243   -0.8635    6.3332 C   0  0  0  0  0  0  0  0  0  0  0  0
   -4.2315  -13.1511    8.1417 C   0  0  0  0  0  0  0  0  0  0  0  0
   -5.1669  -14.1703    8.1560 C   0  0  0  0  0  0  0  0  0  0  0  0
   -5.8825  -14.8596    9.0851 O   0  0  0  0  0  0  0  0  0  0  0  0
   -6.5193  -17.9507    8.2186 H   0  0  0  0  0  0  0  0  0  0  0  0
   -8.3455  -17.7388    8.1038 H   0  0  0  0  0  0  0  0  0  0  0  0
   -7.6839  -17.4778    6.9580 H   0  0  0  0  0  0  0  0  0  0  0  0
   -5.8907  -14.6975    4.9165 H   0  0  0  0  0  0  0  0  0  0  0  0
   -4.8991  -12.9681    6.3926 H   0  0  0  0  0  0  0  0  0  0  0  0
   -5.3379   -9.3401    7.1379 H   0  0  0  0  0  0  0  0  0  0  0  0
   -4.9507   -8.4802    9.6429 H   0  0  0  0  0  0  0  0  0  0  0  0
   -6.0562   -8.2053    8.4599 H   0  0  0  0  0  0  0  0  0  0  0  0
   -2.8956   -6.0014    8.3230 H   0  0  0  0  0  0  0  0  0  0  0  0
   -4.6880   -6.0400   10.4030 H   0  0  0  0  0  0  0  0  0  0  0  0
   -3.0109   -5.7244    9.9089 H   0  0  0  0  0  0  0  0  0  0  0  0
   -3.7150   -4.5116    9.7085 H   0  0  0  0  0  0  0  0  0  0  0  0
   -6.4816   -4.8698    8.4601 H   0  0  0  0  0  0  0  0  0  0  0  0
   -6.0847   -3.2156    7.6605 H   0  0  0  0  0  0  0  0  0  0  0  0
   -6.3340   -4.5664    6.7114 H   0  0  0  0  0  0  0  0  0  0  0  0
   -4.6771   -3.5545    4.7008 H   0  0  0  0  0  0  0  0  0  0  0  0
   -4.7039    0.4503    4.8395 H   0  0  0  0  0  0  0  0  0  0  0  0
   -3.7009   -0.1614    7.1234 H   0  0  0  0  0  0  0  0  0  0  0  0
   -3.4290  -13.1242    8.8325 H   0  0  0  0  0  0  0  0  0  0  0  0
  1  2  1  0
  2  3  2  0
  3  4  1  0
  4  5  2  0
  5  6  1  0
  6  7  2  0
  7  8  1  0
  8  9  2  0
  8 10  1  0
 10 11  1  0
 11 12  1  0
 12 13  1  0
 12 14  1  0
 14 15  1  0
 14 16  1  0
 16 17  2  0
 16 18  1  0
 18 19  1  0
 19 20  2  0
 20 21  1  0
 21 22  1  0
  7 23  1  0
 23 24  2  0
 24 25  1  0
 25  2  1  0
 24  4  1  0
 22 18  2  0
  1 26  1  0
  1 27  1  0
  1 28  1  0
  5 29  1  0
  6 30  1  0
 10 31  1  0
 11 32  1  0
 11 33  1  0
 12 34  1  0
 13 35  1  0
 13 36  1  0
 13 37  1  0
 15 38  1  0
 15 39  1  0
 15 40  1  0
 19 41  1  0
 21 42  1  0
 22 43  1  0
 23 44  1  0
M  END
>  <Energy>  (317) 
1280.5124199639586

>  <compound_id>  (317) 
69349

>  <target_id>  (317) 
1

>  <reference_id>  (317) 
99

>  <inspiration_ids>  (317) 
[2, 99]

>  <energy_score>  (317) 
1208.5605757337107

>  <distance_score>  (317) 
7.256070809038632

>  <path>  (317) 
/opt/xchem-fragalysis-2/maxwin/BulkDock/SCRATCH/511015/C69349-P99/C69349-P99.minimised.mol

>  <scratch_subdir>  (317) 
/opt/xchem-fragalysis-2/maxwin/BulkDock/SCRATCH/511015/C69349-P99

>  <fragmenstein_runtime>  (317) 
13.671454668045044

>  <fragmenstein_outcome>  (317) 
too moved

>  <fragmenstein_mode>  (317) 
expansion

>  <fragmenstein_error>  (317) 


$$$$
C69351-P2
     RDKit          3D

 41 43  0  0  0  0  0  0  0  0999 V2000
   -6.3168  -14.9010    9.1524 C   0  0  0  0  0  0  0  0  0  0  0  0
   -5.2639  -14.3896    8.4193 C   0  0  0  0  0  0  0  0  0  0  0  0
   -4.2749  -13.7498    8.8870 N   0  0  0  0  0  0  0  0  0  0  0  0
   -4.2115  -12.8141    7.9529 C   0  0  0  0  0  0  0  0  0  0  0  0
   -3.7271  -11.3992    7.9754 C   0  0  0  0  0  0  0  0  0  0  0  0
   -3.9080  -10.1115    7.1222 C   0  0  0  0  0  0  0  0  0  0  0  0
   -4.8684   -8.4557    8.2435 C   0  0  0  0  0  0  0  0  0  0  0  0
   -6.0572   -8.6175    8.4578 O   0  0  0  0  0  0  0  0  0  0  0  0
   -3.7022   -6.7251    8.6816 N   0  0  0  0  0  0  0  0  0  0  0  0
   -4.0775   -5.3994    9.2062 C   0  0  0  0  0  0  0  0  0  0  0  0
   -4.3442   -4.0457    7.7907 C   0  0  0  0  0  0  0  0  0  0  0  0
   -5.6812   -2.9732    7.1510 N   0  0  0  0  0  0  0  0  0  0  0  0
   -6.4607   -4.2126    7.2539 C   0  0  0  0  0  0  0  0  0  0  0  0
   -6.4163   -1.8653    7.7938 C   0  0  0  0  0  0  0  0  0  0  0  0
   -6.3819   -1.4583    8.9207 O   0  0  0  0  0  0  0  0  0  0  0  0
   -7.4243   -1.2325    6.9178 C   0  0  0  0  0  0  0  0  0  0  0  0
   -7.9358   -1.5898    5.6445 C   0  0  0  0  0  0  0  0  0  0  0  0
   -8.9546   -0.8218    5.2472 N   0  0  0  0  0  0  0  0  0  0  0  0
   -9.1276    0.0129    6.2800 N   0  0  0  0  0  0  0  0  0  0  0  0
   -8.2347   -0.1736    7.2886 C   0  0  0  0  0  0  0  0  0  0  0  0
   -3.4902  -11.6314    6.1273 C   0  0  0  0  0  0  0  0  0  0  0  0
   -4.2435  -13.1366    5.4575 C   0  0  0  0  0  0  0  0  0  0  0  0
   -4.7094  -13.4441    6.7696 C   0  0  0  0  0  0  0  0  0  0  0  0
   -5.5679  -14.2563    7.1263 O   0  0  0  0  0  0  0  0  0  0  0  0
   -6.2004  -14.4122   10.0963 H   0  0  0  0  0  0  0  0  0  0  0  0
   -6.6296  -15.9185    9.2648 H   0  0  0  0  0  0  0  0  0  0  0  0
   -7.1758  -14.8302    8.5847 H   0  0  0  0  0  0  0  0  0  0  0  0
   -2.9885  -11.2919    8.7977 H   0  0  0  0  0  0  0  0  0  0  0  0
   -2.8080   -6.8493    8.5034 H   0  0  0  0  0  0  0  0  0  0  0  0
   -4.5407   -5.8842   10.1128 H   0  0  0  0  0  0  0  0  0  0  0  0
   -3.2395   -5.0055    9.7108 H   0  0  0  0  0  0  0  0  0  0  0  0
   -3.5550   -3.2833    7.9551 H   0  0  0  0  0  0  0  0  0  0  0  0
   -3.8980   -4.5312    6.9533 H   0  0  0  0  0  0  0  0  0  0  0  0
   -6.7921   -4.6740    8.1832 H   0  0  0  0  0  0  0  0  0  0  0  0
   -7.4746   -3.8865    6.9630 H   0  0  0  0  0  0  0  0  0  0  0  0
   -6.3125   -4.8646    6.3977 H   0  0  0  0  0  0  0  0  0  0  0  0
   -7.6222   -2.3970    4.9968 H   0  0  0  0  0  0  0  0  0  0  0  0
   -9.8833    0.6872    6.2301 H   0  0  0  0  0  0  0  0  0  0  0  0
   -8.2706    0.4130    8.1958 H   0  0  0  0  0  0  0  0  0  0  0  0
   -2.6640  -11.3627    5.3710 H   0  0  0  0  0  0  0  0  0  0  0  0
   -3.8510  -13.8364    4.7218 H   0  0  0  0  0  0  0  0  0  0  0  0
  1  2  1  0
  2  3  2  0
  3  4  1  0
  4  5  2  0
  5  6  1  0
  6  7  1  0
  7  8  2  0
  7  9  1  0
  9 10  1  0
 10 11  1  0
 11 12  1  0
 12 13  1  0
 12 14  1  0
 14 15  2  0
 14 16  1  0
 16 17  1  0
 17 18  2  0
 18 19  1  0
 19 20  1  0
  6 21  2  0
 21 22  1  0
 22 23  2  0
 23 24  1  0
 24  2  1  0
 23  4  1  0
 20 16  2  0
  1 25  1  0
  1 26  1  0
  1 27  1  0
  5 28  1  0
  9 29  1  0
 10 30  1  0
 10 31  1  0
 11 32  1  0
 11 33  1  0
 13 34  1  0
 13 35  1  0
 13 36  1  0
 17 37  1  0
 19 38  1  0
 20 39  1  0
 21 40  1  0
 22 41  1  0
M  END
>  <Energy>  (318) 
980.66629431630042

>  <compound_id>  (318) 
69351

>  <target_id>  (318) 
1

>  <reference_id>  (318) 
2

>  <inspiration_ids>  (318) 
[2, 99]

>  <energy_score>  (318) 
917.186820820468

>  <distance_score>  (318) 
7.558459416311628

>  <path>  (318) 
/opt/xchem-fragalysis-2/maxwin/BulkDock/SCRATCH/511015/C69351-P2/C69351-P2.minimised.mol

>  <scratch_subdir>  (318) 
/opt/xchem-fragalysis-2/maxwin/BulkDock/SCRATCH/511015/C69351-P2

>  <fragmenstein_runtime>  (318) 
14.087726593017578

>  <fragmenstein_outcome>  (318) 
too moved

>  <fragmenstein_mode>  (318) 
expansion

>  <fragmenstein_error>  (318) 


$$$$
C69351-P99
     RDKit          3D

 41 43  0  0  0  0  0  0  0  0999 V2000
   -7.3113  -24.2645    6.5036 C   0  0  0  0  0  0  0  0  0  0  0  0
   -7.8019  -23.0334    7.1204 C   0  0  0  0  0  0  0  0  0  0  0  0
   -9.2431  -21.8986    6.7958 N   0  0  0  0  0  0  0  0  0  0  0  0
   -9.1784  -20.2146    7.9316 C   0  0  0  0  0  0  0  0  0  0  0  0
   -8.7292  -18.4245    7.6352 C   0  0  0  0  0  0  0  0  0  0  0  0
   -7.5935  -16.9093    7.8289 C   0  0  0  0  0  0  0  0  0  0  0  0
   -7.4218  -14.7579    7.3256 C   0  0  0  0  0  0  0  0  0  0  0  0
   -6.2556  -14.3599    7.0667 O   0  0  0  0  0  0  0  0  0  0  0  0
   -8.9861  -13.3248    7.3161 N   0  0  0  0  0  0  0  0  0  0  0  0
   -9.0109  -11.1430    7.0927 C   0  0  0  0  0  0  0  0  0  0  0  0
   -9.9223   -9.1057    6.6337 C   0  0  0  0  0  0  0  0  0  0  0  0
   -9.8451   -7.2289    5.6089 N   0  0  0  0  0  0  0  0  0  0  0  0
  -10.0495   -6.7446    6.7833 C   0  0  0  0  0  0  0  0  0  0  0  0
  -10.8479   -6.5574    4.5864 C   0  0  0  0  0  0  0  0  0  0  0  0
  -11.9628   -6.9118    4.2087 O   0  0  0  0  0  0  0  0  0  0  0  0
  -10.1633   -4.9760    4.1118 C   0  0  0  0  0  0  0  0  0  0  0  0
   -9.4858   -4.2327    3.0441 C   0  0  0  0  0  0  0  0  0  0  0  0
   -9.1031   -2.9867    3.3309 N   0  0  0  0  0  0  0  0  0  0  0  0
   -9.5100   -2.8413    4.5857 N   0  0  0  0  0  0  0  0  0  0  0  0
  -10.0524   -3.9731    5.1038 C   0  0  0  0  0  0  0  0  0  0  0  0
   -6.5085  -18.1403    8.5331 C   0  0  0  0  0  0  0  0  0  0  0  0
   -6.9468  -19.2664    9.9460 C   0  0  0  0  0  0  0  0  0  0  0  0
   -7.9465  -20.5411    9.3234 C   0  0  0  0  0  0  0  0  0  0  0  0
   -6.7894  -22.2142    8.6692 O   0  0  0  0  0  0  0  0  0  0  0  0
   -7.9230  -24.5271    5.6366 H   0  0  0  0  0  0  0  0  0  0  0  0
   -6.2768  -24.1383    6.1734 H   0  0  0  0  0  0  0  0  0  0  0  0
   -7.3494  -25.0908    7.2184 H   0  0  0  0  0  0  0  0  0  0  0  0
   -8.0792  -18.9844    8.2045 H   0  0  0  0  0  0  0  0  0  0  0  0
   -9.7752  -13.7351    7.6096 H   0  0  0  0  0  0  0  0  0  0  0  0
   -9.3093  -10.8469    8.0701 H   0  0  0  0  0  0  0  0  0  0  0  0
   -8.0382  -11.1010    7.5327 H   0  0  0  0  0  0  0  0  0  0  0  0
   -9.3731   -8.7814    7.5273 H   0  0  0  0  0  0  0  0  0  0  0  0
   -9.8289   -9.2368    5.5315 H   0  0  0  0  0  0  0  0  0  0  0  0
  -10.5257   -5.8119    6.5261 H   0  0  0  0  0  0  0  0  0  0  0  0
   -9.2761   -5.9144    6.6159 H   0  0  0  0  0  0  0  0  0  0  0  0
   -9.3620   -6.7066    7.6154 H   0  0  0  0  0  0  0  0  0  0  0  0
   -9.1462   -4.5664    2.0758 H   0  0  0  0  0  0  0  0  0  0  0  0
   -9.3819   -1.9452    5.0430 H   0  0  0  0  0  0  0  0  0  0  0  0
  -10.4023   -3.9206    6.1206 H   0  0  0  0  0  0  0  0  0  0  0  0
   -5.5210  -17.8863    8.6068 H   0  0  0  0  0  0  0  0  0  0  0  0
   -6.2078  -19.7337   10.6132 H   0  0  0  0  0  0  0  0  0  0  0  0
  1  2  1  0
  2  3  2  0
  3  4  1  0
  4  5  2  0
  5  6  1  0
  6  7  1  0
  7  8  2  0
  7  9  1  0
  9 10  1  0
 10 11  1  0
 11 12  1  0
 12 13  1  0
 12 14  1  0
 14 15  2  0
 14 16  1  0
 16 17  1  0
 17 18  2  0
 18 19  1  0
 19 20  1  0
  6 21  2  0
 21 22  1  0
 22 23  2  0
 23 24  1  0
 24  2  1  0
 23  4  1  0
 20 16  2  0
  1 25  1  0
  1 26  1  0
  1 27  1  0
  5 28  1  0
  9 29  1  0
 10 30  1  0
 10 31  1  0
 11 32  1  0
 11 33  1  0
 13 34  1  0
 13 35  1  0
 13 36  1  0
 17 37  1  0
 19 38  1  0
 20 39  1  0
 21 40  1  0
 22 41  1  0
M  END
>  <Energy>  (319) 
2272.7350189861577

>  <compound_id>  (319) 
69351

>  <target_id>  (319) 
1

>  <reference_id>  (319) 
99

>  <inspiration_ids>  (319) 
[2, 99]

>  <energy_score>  (319) 
2209.2555454903277

>  <distance_score>  (319) 
6.07254089451962

>  <path>  (319) 
/opt/xchem-fragalysis-2/maxwin/BulkDock/SCRATCH/511015/C69351-P99/C69351-P99.minimised.mol

>  <scratch_subdir>  (319) 
/opt/xchem-fragalysis-2/maxwin/BulkDock/SCRATCH/511015/C69351-P99

>  <fragmenstein_runtime>  (319) 
17.314703702926636

>  <fragmenstein_outcome>  (319) 
too moved

>  <fragmenstein_mode>  (319) 
expansion

>  <fragmenstein_error>  (319) 


$$$$
C69357-P2
     RDKit          3D

 44 46  0  0  0  0  0  0  0  0999 V2000
   -7.2477   -4.6105    5.7673 C   0  0  0  0  0  0  0  0  0  0  0  0
   -7.7477   -5.8755    6.5908 C   0  0  0  0  0  0  0  0  0  0  0  0
   -7.5996   -5.6161    7.9486 N   0  0  0  0  0  0  0  0  0  0  0  0
   -7.9395   -7.7088    8.1501 C   0  0  0  0  0  0  0  0  0  0  0  0
   -9.2021   -9.4656    7.9689 C   0  0  0  0  0  0  0  0  0  0  0  0
   -8.4336  -11.4059    7.8721 N   0  0  0  0  0  0  0  0  0  0  0  0
   -8.8394  -13.1326    8.8830 C   0  0  0  0  0  0  0  0  0  0  0  0
   -9.7650  -13.1700    9.6547 O   0  0  0  0  0  0  0  0  0  0  0  0
   -7.3766  -14.7934    8.6219 C   0  0  0  0  0  0  0  0  0  0  0  0
   -6.6552  -15.7923    9.1226 C   0  0  0  0  0  0  0  0  0  0  0  0
   -6.3153  -17.6865    8.8533 C   0  0  0  0  0  0  0  0  0  0  0  0
   -7.2948  -18.6404    8.8100 C   0  0  0  0  0  0  0  0  0  0  0  0
   -7.7581  -19.8985    9.0655 O   0  0  0  0  0  0  0  0  0  0  0  0
   -8.8940  -19.9769    8.2798 C   0  0  0  0  0  0  0  0  0  0  0  0
   -9.5758  -21.2818    8.2159 C   0  0  0  0  0  0  0  0  0  0  0  0
   -9.1518  -18.8502    7.6342 N   0  0  0  0  0  0  0  0  0  0  0  0
   -8.0711  -17.9757    7.8839 C   0  0  0  0  0  0  0  0  0  0  0  0
   -7.6373  -16.3564    8.2781 C   0  0  0  0  0  0  0  0  0  0  0  0
   -8.4383   -4.4860    8.3064 C   0  0  0  0  0  0  0  0  0  0  0  0
   -9.5309   -4.4672    8.6974 O   0  0  0  0  0  0  0  0  0  0  0  0
   -7.9590   -3.0693    8.0629 C   0  0  0  0  0  0  0  0  0  0  0  0
   -8.8953   -1.9711    8.0025 C   0  0  0  0  0  0  0  0  0  0  0  0
   -8.3666   -0.8023    7.6351 N   0  0  0  0  0  0  0  0  0  0  0  0
   -7.0957   -1.1187    7.4144 N   0  0  0  0  0  0  0  0  0  0  0  0
   -6.8088   -2.4227    7.6706 C   0  0  0  0  0  0  0  0  0  0  0  0
   -8.0264   -3.8498    5.6631 H   0  0  0  0  0  0  0  0  0  0  0  0
   -6.3569   -4.2301    6.2433 H   0  0  0  0  0  0  0  0  0  0  0  0
   -6.9331   -4.8460    4.7467 H   0  0  0  0  0  0  0  0  0  0  0  0
   -6.9460   -6.4734    6.1968 H   0  0  0  0  0  0  0  0  0  0  0  0
   -8.8306   -5.8080    6.3676 H   0  0  0  0  0  0  0  0  0  0  0  0
   -7.4871   -7.8566    9.1663 H   0  0  0  0  0  0  0  0  0  0  0  0
   -7.0133   -8.1813    7.7204 H   0  0  0  0  0  0  0  0  0  0  0  0
  -10.0998   -9.3793    8.5900 H   0  0  0  0  0  0  0  0  0  0  0  0
   -8.1721   -9.3337    8.4628 H   0  0  0  0  0  0  0  0  0  0  0  0
   -7.6185  -11.5164    7.3576 H   0  0  0  0  0  0  0  0  0  0  0  0
   -5.8966  -15.0008    9.4060 H   0  0  0  0  0  0  0  0  0  0  0  0
   -5.3569  -17.9658    8.9556 H   0  0  0  0  0  0  0  0  0  0  0  0
   -9.3721  -21.8762    9.1114 H   0  0  0  0  0  0  0  0  0  0  0  0
   -9.2349  -21.8441    7.3422 H   0  0  0  0  0  0  0  0  0  0  0  0
  -10.6566  -21.1481    8.1356 H   0  0  0  0  0  0  0  0  0  0  0  0
   -8.4128  -16.8101    8.8455 H   0  0  0  0  0  0  0  0  0  0  0  0
   -9.9591   -2.0083    8.1946 H   0  0  0  0  0  0  0  0  0  0  0  0
   -6.4797   -0.4023    7.0465 H   0  0  0  0  0  0  0  0  0  0  0  0
   -5.8118   -2.7974    7.5392 H   0  0  0  0  0  0  0  0  0  0  0  0
  1  2  1  0
  2  3  1  0
  3  4  1  0
  4  5  1  0
  5  6  1  0
  6  7  1  0
  7  8  2  0
  7  9  1  0
  9 10  2  0
 10 11  1  0
 11 12  2  0
 12 13  1  0
 13 14  1  0
 14 15  1  0
 14 16  2  0
 16 17  1  0
 17 18  2  0
  3 19  1  0
 19 20  2  0
 19 21  1  0
 21 22  1  0
 22 23  2  0
 23 24  1  0
 24 25  1  0
 18  9  1  0
 25 21  2  0
 17 12  1  0
  1 26  1  0
  1 27  1  0
  1 28  1  0
  2 29  1  0
  2 30  1  0
  4 31  1  0
  4 32  1  0
  5 33  1  0
  5 34  1  0
  6 35  1  0
 10 36  1  0
 11 37  1  0
 15 38  1  0
 15 39  1  0
 15 40  1  0
 18 41  1  0
 22 42  1  0
 24 43  1  0
 25 44  1  0
M  END
>  <Energy>  (320) 
1357.6439592211918

>  <compound_id>  (320) 
69357

>  <target_id>  (320) 
1

>  <reference_id>  (320) 
2

>  <inspiration_ids>  (320) 
[2, 99]

>  <energy_score>  (320) 
1295.9880977178486

>  <distance_score>  (320) 
4.991062231802676

>  <path>  (320) 
/opt/xchem-fragalysis-2/maxwin/BulkDock/SCRATCH/511015/C69357-P2/C69357-P2.minimised.mol

>  <scratch_subdir>  (320) 
/opt/xchem-fragalysis-2/maxwin/BulkDock/SCRATCH/511015/C69357-P2

>  <fragmenstein_runtime>  (320) 
17.060609817504883

>  <fragmenstein_outcome>  (320) 
too moved

>  <fragmenstein_mode>  (320) 
expansion

>  <fragmenstein_error>  (320) 


$$$$
C69357-P99
     RDKit          3D

 44 46  0  0  0  0  0  0  0  0999 V2000
   -6.4150   -4.3406    6.2184 C   0  0  0  0  0  0  0  0  0  0  0  0
   -7.0476   -5.8423    6.4539 C   0  0  0  0  0  0  0  0  0  0  0  0
   -8.2199   -5.9734    7.3810 N   0  0  0  0  0  0  0  0  0  0  0  0
   -7.3324   -7.8107    7.8805 C   0  0  0  0  0  0  0  0  0  0  0  0
   -6.5570   -9.6437    7.1971 C   0  0  0  0  0  0  0  0  0  0  0  0
   -7.8042  -11.3600    7.4462 N   0  0  0  0  0  0  0  0  0  0  0  0
   -7.9251  -13.1725    6.4488 C   0  0  0  0  0  0  0  0  0  0  0  0
   -7.3702  -13.5929    5.3768 O   0  0  0  0  0  0  0  0  0  0  0  0
   -8.5374  -14.1136    7.0007 C   0  0  0  0  0  0  0  0  0  0  0  0
   -7.0076  -14.8496    7.9416 C   0  0  0  0  0  0  0  0  0  0  0  0
   -6.6382  -16.3806    8.8124 C   0  0  0  0  0  0  0  0  0  0  0  0
   -7.2302  -18.0367    8.1195 C   0  0  0  0  0  0  0  0  0  0  0  0
   -8.7018  -19.0308    7.9284 O   0  0  0  0  0  0  0  0  0  0  0  0
   -9.0941  -19.3270    6.5392 C   0  0  0  0  0  0  0  0  0  0  0  0
  -10.0772  -20.3542    6.1295 C   0  0  0  0  0  0  0  0  0  0  0  0
   -8.4579  -18.4362    5.7985 N   0  0  0  0  0  0  0  0  0  0  0  0
   -7.7934  -17.4505    7.0958 C   0  0  0  0  0  0  0  0  0  0  0  0
   -7.5568  -15.5857    7.2307 C   0  0  0  0  0  0  0  0  0  0  0  0
   -8.3491   -4.7936    8.1170 C   0  0  0  0  0  0  0  0  0  0  0  0
   -7.9077   -4.4994    9.1596 O   0  0  0  0  0  0  0  0  0  0  0  0
   -9.0883   -3.7370    7.3814 C   0  0  0  0  0  0  0  0  0  0  0  0
   -9.7520   -3.7451    6.1287 C   0  0  0  0  0  0  0  0  0  0  0  0
  -10.0685   -2.5187    5.7000 N   0  0  0  0  0  0  0  0  0  0  0  0
   -9.7886   -1.7443    6.7508 N   0  0  0  0  0  0  0  0  0  0  0  0
   -9.1305   -2.3999    7.7392 C   0  0  0  0  0  0  0  0  0  0  0  0
   -5.8888   -4.2853    5.2595 H   0  0  0  0  0  0  0  0  0  0  0  0
   -5.8066   -3.9373    7.0252 H   0  0  0  0  0  0  0  0  0  0  0  0
   -7.1714   -3.5771    6.0387 H   0  0  0  0  0  0  0  0  0  0  0  0
   -7.6803   -5.4943    5.6764 H   0  0  0  0  0  0  0  0  0  0  0  0
   -6.6381   -6.6927    5.9922 H   0  0  0  0  0  0  0  0  0  0  0  0
   -6.9080   -7.7238    8.9110 H   0  0  0  0  0  0  0  0  0  0  0  0
   -8.2816   -8.2511    8.2583 H   0  0  0  0  0  0  0  0  0  0  0  0
   -5.8185   -9.6005    7.9994 H   0  0  0  0  0  0  0  0  0  0  0  0
   -6.0726   -9.5482    6.2368 H   0  0  0  0  0  0  0  0  0  0  0  0
   -8.4071  -11.3491    8.1661 H   0  0  0  0  0  0  0  0  0  0  0  0
   -5.9730  -14.3284    7.8398 H   0  0  0  0  0  0  0  0  0  0  0  0
   -5.9500  -17.5181    8.7294 H   0  0  0  0  0  0  0  0  0  0  0  0
  -10.7986  -19.9284    5.4258 H   0  0  0  0  0  0  0  0  0  0  0  0
  -10.6050  -20.7801    6.9849 H   0  0  0  0  0  0  0  0  0  0  0  0
   -9.6079  -21.1582    5.5542 H   0  0  0  0  0  0  0  0  0  0  0  0
   -7.9093  -16.4544    7.9716 H   0  0  0  0  0  0  0  0  0  0  0  0
   -9.9613   -4.5879    5.4841 H   0  0  0  0  0  0  0  0  0  0  0  0
  -10.0361   -0.7627    6.7046 H   0  0  0  0  0  0  0  0  0  0  0  0
   -8.7585   -1.8787    8.6038 H   0  0  0  0  0  0  0  0  0  0  0  0
  1  2  1  0
  2  3  1  0
  3  4  1  0
  4  5  1  0
  5  6  1  0
  6  7  1  0
  7  8  2  0
  7  9  1  0
  9 10  2  0
 10 11  1  0
 11 12  2  0
 12 13  1  0
 13 14  1  0
 14 15  1  0
 14 16  2  0
 16 17  1  0
 17 18  2  0
  3 19  1  0
 19 20  2  0
 19 21  1  0
 21 22  1  0
 22 23  2  0
 23 24  1  0
 24 25  1  0
 18  9  1  0
 25 21  2  0
 17 12  1  0
  1 26  1  0
  1 27  1  0
  1 28  1  0
  2 29  1  0
  2 30  1  0
  4 31  1  0
  4 32  1  0
  5 33  1  0
  5 34  1  0
  6 35  1  0
 10 36  1  0
 11 37  1  0
 15 38  1  0
 15 39  1  0
 15 40  1  0
 18 41  1  0
 22 42  1  0
 24 43  1  0
 25 44  1  0
M  END
>  <Energy>  (321) 
1730.7680253246433

>  <compound_id>  (321) 
69357

>  <target_id>  (321) 
1

>  <reference_id>  (321) 
99

>  <inspiration_ids>  (321) 
[2, 99]

>  <energy_score>  (321) 
1669.1121638213135

>  <distance_score>  (321) 
5.0760217298296

>  <path>  (321) 
/opt/xchem-fragalysis-2/maxwin/BulkDock/SCRATCH/511015/C69357-P99/C69357-P99.minimised.mol

>  <scratch_subdir>  (321) 
/opt/xchem-fragalysis-2/maxwin/BulkDock/SCRATCH/511015/C69357-P99

>  <fragmenstein_runtime>  (321) 
14.450707912445068

>  <fragmenstein_outcome>  (321) 
too moved

>  <fragmenstein_mode>  (321) 
expansion

>  <fragmenstein_error>  (321) 


$$$$
C69358-P2
     RDKit          3D

 46 48  0  0  0  0  0  0  0  0999 V2000
   -9.3136  -13.0768    7.2384 C   0  0  0  0  0  0  0  0  0  0  0  0
   -9.9807  -11.9912    6.1905 C   0  0  0  0  0  0  0  0  0  0  0  0
   -9.4444  -10.4434    7.3209 N   0  0  0  0  0  0  0  0  0  0  0  0
   -9.1985   -8.5414    7.7079 C   0  0  0  0  0  0  0  0  0  0  0  0
   -9.4642   -6.4412    7.2219 C   0  0  0  0  0  0  0  0  0  0  0  0
   -9.0571   -4.8126    6.3713 N   0  0  0  0  0  0  0  0  0  0  0  0
   -8.5412   -4.4593    7.7470 C   0  0  0  0  0  0  0  0  0  0  0  0
   -8.2317   -2.9025    7.5969 C   0  0  0  0  0  0  0  0  0  0  0  0
   -9.3841   -2.0668    7.6274 O   0  0  0  0  0  0  0  0  0  0  0  0
  -10.2155   -4.3228    5.6492 C   0  0  0  0  0  0  0  0  0  0  0  0
  -11.0991   -3.5915    6.0025 O   0  0  0  0  0  0  0  0  0  0  0  0
  -10.2745   -4.6800    4.2306 C   0  0  0  0  0  0  0  0  0  0  0  0
   -9.6234   -3.8618    3.2533 C   0  0  0  0  0  0  0  0  0  0  0  0
   -9.7121   -4.3621    2.0170 N   0  0  0  0  0  0  0  0  0  0  0  0
  -10.6198   -5.3400    2.1573 N   0  0  0  0  0  0  0  0  0  0  0  0
  -10.9034   -5.6361    3.4556 C   0  0  0  0  0  0  0  0  0  0  0  0
  -11.8195  -13.0595    6.2423 C   0  0  0  0  0  0  0  0  0  0  0  0
  -11.9814  -14.3863    6.5293 N   0  0  0  0  0  0  0  0  0  0  0  0
  -12.7374  -14.9370    5.5367 C   0  0  0  0  0  0  0  0  0  0  0  0
  -12.8697  -16.2475    5.0710 C   0  0  0  0  0  0  0  0  0  0  0  0
  -13.7544  -16.5180    4.0310 C   0  0  0  0  0  0  0  0  0  0  0  0
  -14.4477  -15.4738    3.4251 C   0  0  0  0  0  0  0  0  0  0  0  0
  -14.2409  -14.1379    3.8052 C   0  0  0  0  0  0  0  0  0  0  0  0
  -13.3493  -13.9268    4.8464 C   0  0  0  0  0  0  0  0  0  0  0  0
  -12.8253  -12.7389    5.2760 O   0  0  0  0  0  0  0  0  0  0  0  0
   -8.4578  -13.3875    6.7290 H   0  0  0  0  0  0  0  0  0  0  0  0
   -9.4035  -12.9012    8.3097 H   0  0  0  0  0  0  0  0  0  0  0  0
   -9.6845  -14.0400    7.1763 H   0  0  0  0  0  0  0  0  0  0  0  0
   -9.5917  -11.8497    5.1626 H   0  0  0  0  0  0  0  0  0  0  0  0
   -8.7290  -10.9343    7.8482 H   0  0  0  0  0  0  0  0  0  0  0  0
   -8.2405   -8.4830    8.2927 H   0  0  0  0  0  0  0  0  0  0  0  0
   -9.8325   -8.8256    8.5539 H   0  0  0  0  0  0  0  0  0  0  0  0
   -8.4142   -6.2444    7.4466 H   0  0  0  0  0  0  0  0  0  0  0  0
   -9.9180   -6.7028    6.2616 H   0  0  0  0  0  0  0  0  0  0  0  0
   -9.2591   -4.4920    8.5543 H   0  0  0  0  0  0  0  0  0  0  0  0
   -7.5352   -4.8417    7.9464 H   0  0  0  0  0  0  0  0  0  0  0  0
   -7.6974   -2.7097    6.6598 H   0  0  0  0  0  0  0  0  0  0  0  0
   -7.6062   -2.5422    8.4063 H   0  0  0  0  0  0  0  0  0  0  0  0
  -10.1591   -2.5863    7.3305 H   0  0  0  0  0  0  0  0  0  0  0  0
   -9.0405   -2.9654    3.4294 H   0  0  0  0  0  0  0  0  0  0  0  0
  -10.9774   -5.7881    1.3211 H   0  0  0  0  0  0  0  0  0  0  0  0
  -11.5789   -6.4336    3.6970 H   0  0  0  0  0  0  0  0  0  0  0  0
  -12.2790  -17.0405    5.5006 H   0  0  0  0  0  0  0  0  0  0  0  0
  -13.8911  -17.5419    3.6955 H   0  0  0  0  0  0  0  0  0  0  0  0
  -15.1329  -15.6915    2.6084 H   0  0  0  0  0  0  0  0  0  0  0  0
  -14.7085  -13.3118    3.2854 H   0  0  0  0  0  0  0  0  0  0  0  0
  1  2  1  0
  2  3  1  0
  3  4  1  0
  4  5  1  0
  5  6  1  0
  6  7  1  0
  7  8  1  0
  8  9  1  0
  6 10  1  0
 10 11  2  0
 10 12  1  0
 12 13  1  0
 13 14  2  0
 14 15  1  0
 15 16  1  0
  2 17  1  0
 17 18  2  0
 18 19  1  0
 19 20  2  0
 20 21  1  0
 21 22  2  0
 22 23  1  0
 23 24  2  0
 24 25  1  0
 16 12  2  0
 25 17  1  0
 24 19  1  0
  1 26  1  0
  1 27  1  0
  1 28  1  0
  2 29  1  0
  3 30  1  0
  4 31  1  0
  4 32  1  0
  5 33  1  0
  5 34  1  0
  7 35  1  0
  7 36  1  0
  8 37  1  0
  8 38  1  0
  9 39  1  0
 13 40  1  0
 15 41  1  0
 16 42  1  0
 20 43  1  0
 21 44  1  0
 22 45  1  0
 23 46  1  0
M  END
>  <Energy>  (322) 
753.35025474374675

>  <compound_id>  (322) 
69358

>  <target_id>  (322) 
1

>  <reference_id>  (322) 
2

>  <inspiration_ids>  (322) 
[2, 99]

>  <energy_score>  (322) 
620.5213681876569

>  <distance_score>  (322) 
7.795189066741079

>  <path>  (322) 
/opt/xchem-fragalysis-2/maxwin/BulkDock/SCRATCH/511015/C69358-P2/C69358-P2.minimised.mol

>  <scratch_subdir>  (322) 
/opt/xchem-fragalysis-2/maxwin/BulkDock/SCRATCH/511015/C69358-P2

>  <fragmenstein_runtime>  (322) 
14.840646982192993

>  <fragmenstein_outcome>  (322) 
too moved

>  <fragmenstein_mode>  (322) 
expansion

>  <fragmenstein_error>  (322) 


$$$$
C69358-P99
     RDKit          3D

 46 48  0  0  0  0  0  0  0  0999 V2000
   -6.5875   -9.7677    7.8021 C   0  0  0  0  0  0  0  0  0  0  0  0
   -5.2411   -9.5610    7.9178 C   0  0  0  0  0  0  0  0  0  0  0  0
   -6.5846   -8.1103    7.4542 N   0  0  0  0  0  0  0  0  0  0  0  0
   -6.9220   -6.3865    6.3887 C   0  0  0  0  0  0  0  0  0  0  0  0
   -7.9543   -4.9091    6.0544 C   0  0  0  0  0  0  0  0  0  0  0  0
   -7.6566   -3.3981    6.2144 N   0  0  0  0  0  0  0  0  0  0  0  0
   -8.3830   -3.6026    7.4817 C   0  0  0  0  0  0  0  0  0  0  0  0
   -8.4849   -2.1762    8.1166 C   0  0  0  0  0  0  0  0  0  0  0  0
   -9.0162   -1.1584    7.2697 O   0  0  0  0  0  0  0  0  0  0  0  0
   -8.0362   -2.6950    5.0270 C   0  0  0  0  0  0  0  0  0  0  0  0
   -9.0750   -2.1716    4.7292 O   0  0  0  0  0  0  0  0  0  0  0  0
   -6.9400   -2.5390    4.0902 C   0  0  0  0  0  0  0  0  0  0  0  0
   -5.5610   -2.7672    4.2156 C   0  0  0  0  0  0  0  0  0  0  0  0
   -4.8957   -2.4790    3.0926 N   0  0  0  0  0  0  0  0  0  0  0  0
   -5.8456   -2.0219    2.2653 N   0  0  0  0  0  0  0  0  0  0  0  0
   -7.0869   -2.0579    2.8043 C   0  0  0  0  0  0  0  0  0  0  0  0
   -4.1084  -11.4360    7.8507 C   0  0  0  0  0  0  0  0  0  0  0  0
   -4.5456  -12.8834    7.9724 N   0  0  0  0  0  0  0  0  0  0  0  0
   -4.1415  -14.1505    9.1098 C   0  0  0  0  0  0  0  0  0  0  0  0
   -3.0971  -14.6937   10.5981 C   0  0  0  0  0  0  0  0  0  0  0  0
   -1.8173  -15.3978   11.0729 C   0  0  0  0  0  0  0  0  0  0  0  0
   -1.4234  -16.2368   10.1724 C   0  0  0  0  0  0  0  0  0  0  0  0
   -2.1829  -15.7649    9.1671 C   0  0  0  0  0  0  0  0  0  0  0  0
   -2.8896  -14.0999    9.0829 C   0  0  0  0  0  0  0  0  0  0  0  0
   -2.9571  -12.2769    8.8958 O   0  0  0  0  0  0  0  0  0  0  0  0
   -6.3936   -9.8711    6.7127 H   0  0  0  0  0  0  0  0  0  0  0  0
   -7.5338   -9.1807    8.4004 H   0  0  0  0  0  0  0  0  0  0  0  0
   -7.2207  -10.6249    8.0282 H   0  0  0  0  0  0  0  0  0  0  0  0
   -4.7022   -9.4718    6.9973 H   0  0  0  0  0  0  0  0  0  0  0  0
   -6.8370   -7.8264    8.4384 H   0  0  0  0  0  0  0  0  0  0  0  0
   -6.1366   -5.6483    6.3713 H   0  0  0  0  0  0  0  0  0  0  0  0
   -7.6216   -6.0662    7.2695 H   0  0  0  0  0  0  0  0  0  0  0  0
   -7.5525   -4.8455    5.0411 H   0  0  0  0  0  0  0  0  0  0  0  0
   -9.0309   -5.1456    5.9614 H   0  0  0  0  0  0  0  0  0  0  0  0
   -7.8961   -4.2649    8.1991 H   0  0  0  0  0  0  0  0  0  0  0  0
   -9.4404   -3.8436    7.3123 H   0  0  0  0  0  0  0  0  0  0  0  0
   -9.1627   -2.2243    8.9641 H   0  0  0  0  0  0  0  0  0  0  0  0
   -7.5009   -1.8259    8.4375 H   0  0  0  0  0  0  0  0  0  0  0  0
   -9.5661   -1.5786    6.5780 H   0  0  0  0  0  0  0  0  0  0  0  0
   -5.0131   -3.1234    5.0776 H   0  0  0  0  0  0  0  0  0  0  0  0
   -5.5730   -1.6974    1.3427 H   0  0  0  0  0  0  0  0  0  0  0  0
   -7.9604   -1.7226    2.2619 H   0  0  0  0  0  0  0  0  0  0  0  0
   -3.2887  -14.3490   11.6896 H   0  0  0  0  0  0  0  0  0  0  0  0
   -1.5229  -15.4082   12.1155 H   0  0  0  0  0  0  0  0  0  0  0  0
   -0.8936  -17.1585   10.2857 H   0  0  0  0  0  0  0  0  0  0  0  0
   -2.6944  -16.5430    8.5736 H   0  0  0  0  0  0  0  0  0  0  0  0
  1  2  1  0
  2  3  1  0
  3  4  1  0
  4  5  1  0
  5  6  1  0
  6  7  1  0
  7  8  1  0
  8  9  1  0
  6 10  1  0
 10 11  2  0
 10 12  1  0
 12 13  1  0
 13 14  2  0
 14 15  1  0
 15 16  1  0
  2 17  1  0
 17 18  2  0
 18 19  1  0
 19 20  2  0
 20 21  1  0
 21 22  2  0
 22 23  1  0
 23 24  2  0
 24 25  1  0
 16 12  2  0
 25 17  1  0
 24 19  1  0
  1 26  1  0
  1 27  1  0
  1 28  1  0
  2 29  1  0
  3 30  1  0
  4 31  1  0
  4 32  1  0
  5 33  1  0
  5 34  1  0
  7 35  1  0
  7 36  1  0
  8 37  1  0
  8 38  1  0
  9 39  1  0
 13 40  1  0
 15 41  1  0
 16 42  1  0
 20 43  1  0
 21 44  1  0
 22 45  1  0
 23 46  1  0
M  END
>  <Energy>  (323) 
1524.7798795646706

>  <compound_id>  (323) 
69358

>  <target_id>  (323) 
1

>  <reference_id>  (323) 
99

>  <inspiration_ids>  (323) 
[2, 99]

>  <energy_score>  (323) 
1391.9509930086049

>  <distance_score>  (323) 
7.907746120244622

>  <path>  (323) 
/opt/xchem-fragalysis-2/maxwin/BulkDock/SCRATCH/511015/C69358-P99/C69358-P99.minimised.mol

>  <scratch_subdir>  (323) 
/opt/xchem-fragalysis-2/maxwin/BulkDock/SCRATCH/511015/C69358-P99

>  <fragmenstein_runtime>  (323) 
15.204793930053711

>  <fragmenstein_outcome>  (323) 
too moved

>  <fragmenstein_mode>  (323) 
expansion

>  <fragmenstein_error>  (323) 


$$$$
C30369-P94
     RDKit          3D

 35 37  0  0  0  0  0  0  0  0999 V2000
    3.4408  -13.1856   21.6407 O   0  0  0  0  0  0  0  0  0  0  0  0
    3.2051  -12.4591   22.6043 C   0  0  0  0  0  0  0  0  0  0  0  0
    4.2713  -10.8110   22.4475 C   0  0  0  0  0  0  0  0  0  0  0  0
    5.1562  -10.3387   21.2054 C   0  0  0  0  0  0  0  0  0  0  0  0
    5.4280   -9.0239   20.8517 C   0  0  0  0  0  0  0  0  0  0  0  0
    6.3514   -9.1037   19.8087 C   0  0  0  0  0  0  0  0  0  0  0  0
    6.6681  -10.3605   19.5033 N   0  0  0  0  0  0  0  0  0  0  0  0
    5.8983  -11.1036   20.3380 N   0  0  0  0  0  0  0  0  0  0  0  0
    1.9209  -12.8065   23.8926 N   0  0  0  0  0  0  0  0  0  0  0  0
    0.5283  -14.2644   24.0264 C   0  0  0  0  0  0  0  0  0  0  0  0
   -1.2975  -15.2995   24.5524 C   0  0  0  0  0  0  0  0  0  0  0  0
   -2.2639  -17.0821   25.1737 C   0  0  0  0  0  0  0  0  0  0  0  0
   -1.7149  -18.6439   25.0123 N   0  0  0  0  0  0  0  0  0  0  0  0
   -2.3019  -20.2848   24.1423 C   0  0  0  0  0  0  0  0  0  0  0  0
   -2.8295  -21.4976   23.5096 C   0  0  0  0  0  0  0  0  0  0  0  0
   -4.0943  -22.1963   23.6286 C   0  0  0  0  0  0  0  0  0  0  0  0
   -5.0785  -21.7412   24.5008 C   0  0  0  0  0  0  0  0  0  0  0  0
   -4.8665  -20.5335   25.2039 C   0  0  0  0  0  0  0  0  0  0  0  0
   -3.5344  -19.7524   24.9710 C   0  0  0  0  0  0  0  0  0  0  0  0
   -2.3424  -18.6651   25.9616 N   0  0  0  0  0  0  0  0  0  0  0  0
    5.1782  -10.7276   23.0919 H   0  0  0  0  0  0  0  0  0  0  0  0
    3.6244   -9.9456   22.5541 H   0  0  0  0  0  0  0  0  0  0  0  0
    5.0140   -8.1361   21.3079 H   0  0  0  0  0  0  0  0  0  0  0  0
    6.7983   -8.2878   19.2704 H   0  0  0  0  0  0  0  0  0  0  0  0
    5.9207  -12.1186   20.2554 H   0  0  0  0  0  0  0  0  0  0  0  0
    1.8649  -12.0299   24.5238 H   0  0  0  0  0  0  0  0  0  0  0  0
   -0.0964  -13.9486   23.1604 H   0  0  0  0  0  0  0  0  0  0  0  0
    1.3188  -14.7625   23.4361 H   0  0  0  0  0  0  0  0  0  0  0  0
   -1.8536  -15.2380   23.6496 H   0  0  0  0  0  0  0  0  0  0  0  0
   -1.8175  -14.6202   25.2682 H   0  0  0  0  0  0  0  0  0  0  0  0
   -2.0905  -22.0151   22.8937 H   0  0  0  0  0  0  0  0  0  0  0  0
   -4.2382  -23.1202   23.0736 H   0  0  0  0  0  0  0  0  0  0  0  0
   -5.9495  -22.3643   24.6686 H   0  0  0  0  0  0  0  0  0  0  0  0
   -5.5223  -20.2226   26.0070 H   0  0  0  0  0  0  0  0  0  0  0  0
   -2.8499  -18.3964   26.7577 H   0  0  0  0  0  0  0  0  0  0  0  0
  1  2  2  0
  2  3  1  0
  3  4  1  0
  4  5  2  0
  5  6  1  0
  6  7  2  0
  7  8  1  0
  2  9  1  0
  9 10  1  0
 10 11  1  0
 11 12  1  0
 12 13  2  0
 13 14  1  0
 14 15  2  0
 15 16  1  0
 16 17  2  0
 17 18  1  0
 18 19  2  0
 19 20  1  0
  8  4  1  0
 20 12  1  0
 19 14  1  0
  3 21  1  0
  3 22  1  0
  5 23  1  0
  6 24  1  0
  8 25  1  0
  9 26  1  0
 10 27  1  0
 10 28  1  0
 11 29  1  0
 11 30  1  0
 15 31  1  0
 16 32  1  0
 17 33  1  0
 18 34  1  0
 20 35  1  0
M  END
>  <Energy>  (324) 
1108.6924542672718

>  <compound_id>  (324) 
30369

>  <target_id>  (324) 
1

>  <reference_id>  (324) 
94

>  <inspiration_ids>  (324) 
[94, 122]

>  <energy_score>  (324) 
1051.3325648007453

>  <distance_score>  (324) 
11.63746213382182

>  <path>  (324) 
/opt/xchem-fragalysis-2/maxwin/BulkDock/SCRATCH/511015/C30369-P94/C30369-P94.minimised.mol

>  <scratch_subdir>  (324) 
/opt/xchem-fragalysis-2/maxwin/BulkDock/SCRATCH/511015/C30369-P94

>  <fragmenstein_runtime>  (324) 
19.139376401901245

>  <fragmenstein_outcome>  (324) 
too moved

>  <fragmenstein_mode>  (324) 
expansion

>  <fragmenstein_error>  (324) 


$$$$
C30369-P122
     RDKit          3D

 35 37  0  0  0  0  0  0  0  0999 V2000
    1.0158  -13.8124   26.4531 O   0  0  0  0  0  0  0  0  0  0  0  0
    0.8589  -13.8803   25.2474 C   0  0  0  0  0  0  0  0  0  0  0  0
    2.4869  -13.2492   24.3462 C   0  0  0  0  0  0  0  0  0  0  0  0
    4.0937  -13.9700   25.3099 C   0  0  0  0  0  0  0  0  0  0  0  0
    5.5291  -13.3769   25.7535 C   0  0  0  0  0  0  0  0  0  0  0  0
    6.1126  -14.0552   26.7878 C   0  0  0  0  0  0  0  0  0  0  0  0
    5.1665  -14.7735   27.3270 N   0  0  0  0  0  0  0  0  0  0  0  0
    4.0525  -14.5189   26.6183 N   0  0  0  0  0  0  0  0  0  0  0  0
   -0.6168  -14.6560   24.3139 N   0  0  0  0  0  0  0  0  0  0  0  0
   -2.2179  -15.7192   24.9645 C   0  0  0  0  0  0  0  0  0  0  0  0
   -2.4756  -17.8117   25.4966 C   0  0  0  0  0  0  0  0  0  0  0  0
   -3.6371  -19.6202   25.0412 C   0  0  0  0  0  0  0  0  0  0  0  0
   -5.1163  -19.6488   24.4433 N   0  0  0  0  0  0  0  0  0  0  0  0
   -5.6372  -20.9958   24.1862 C   0  0  0  0  0  0  0  0  0  0  0  0
   -6.3121  -21.6028   23.1121 C   0  0  0  0  0  0  0  0  0  0  0  0
   -6.3592  -22.9730   23.1491 C   0  0  0  0  0  0  0  0  0  0  0  0
   -5.8649  -23.6159   24.2759 C   0  0  0  0  0  0  0  0  0  0  0  0
   -5.4283  -22.9607   25.4453 C   0  0  0  0  0  0  0  0  0  0  0  0
   -5.2100  -21.6336   25.2616 C   0  0  0  0  0  0  0  0  0  0  0  0
   -4.8263  -20.4751   25.8957 N   0  0  0  0  0  0  0  0  0  0  0  0
    2.4718  -12.2285   24.0178 H   0  0  0  0  0  0  0  0  0  0  0  0
    2.7218  -13.8983   23.4987 H   0  0  0  0  0  0  0  0  0  0  0  0
    6.0140  -12.4940   25.3347 H   0  0  0  0  0  0  0  0  0  0  0  0
    7.0880  -13.9829   27.2470 H   0  0  0  0  0  0  0  0  0  0  0  0
    3.2194  -14.4416   27.1754 H   0  0  0  0  0  0  0  0  0  0  0  0
   -0.5241  -14.4894   23.3089 H   0  0  0  0  0  0  0  0  0  0  0  0
   -2.3101  -15.0438   25.8178 H   0  0  0  0  0  0  0  0  0  0  0  0
   -2.9806  -15.4955   24.2252 H   0  0  0  0  0  0  0  0  0  0  0  0
   -1.5167  -18.2610   25.7841 H   0  0  0  0  0  0  0  0  0  0  0  0
   -2.6450  -17.5862   26.5939 H   0  0  0  0  0  0  0  0  0  0  0  0
   -6.6376  -21.0313   22.2513 H   0  0  0  0  0  0  0  0  0  0  0  0
   -6.7196  -23.5313   22.2930 H   0  0  0  0  0  0  0  0  0  0  0  0
   -5.8060  -24.6836   24.2009 H   0  0  0  0  0  0  0  0  0  0  0  0
   -5.0946  -23.4380   26.3397 H   0  0  0  0  0  0  0  0  0  0  0  0
   -4.9578  -20.2007   26.8503 H   0  0  0  0  0  0  0  0  0  0  0  0
  1  2  2  0
  2  3  1  0
  3  4  1  0
  4  5  2  0
  5  6  1  0
  6  7  2  0
  7  8  1  0
  2  9  1  0
  9 10  1  0
 10 11  1  0
 11 12  1  0
 12 13  2  0
 13 14  1  0
 14 15  2  0
 15 16  1  0
 16 17  2  0
 17 18  1  0
 18 19  2  0
 19 20  1  0
  8  4  1  0
 20 12  1  0
 19 14  1  0
  3 21  1  0
  3 22  1  0
  5 23  1  0
  6 24  1  0
  8 25  1  0
  9 26  1  0
 10 27  1  0
 10 28  1  0
 11 29  1  0
 11 30  1  0
 15 31  1  0
 16 32  1  0
 17 33  1  0
 18 34  1  0
 20 35  1  0
M  END
>  <Energy>  (325) 
803.47406172840351

>  <compound_id>  (325) 
30369

>  <target_id>  (325) 
1

>  <reference_id>  (325) 
122

>  <inspiration_ids>  (325) 
[94, 122]

>  <energy_score>  (325) 
746.1141722618603

>  <distance_score>  (325) 
13.224057662851394

>  <path>  (325) 
/opt/xchem-fragalysis-2/maxwin/BulkDock/SCRATCH/511015/C30369-P122/C30369-P122.minimised.mol

>  <scratch_subdir>  (325) 
/opt/xchem-fragalysis-2/maxwin/BulkDock/SCRATCH/511015/C30369-P122

>  <fragmenstein_runtime>  (325) 
16.380585432052612

>  <fragmenstein_outcome>  (325) 
too moved

>  <fragmenstein_mode>  (325) 
expansion

>  <fragmenstein_error>  (325) 


$$$$
C35248-P94
     RDKit          3D

 37 40  0  0  0  0  0  0  0  0999 V2000
   -6.4951  -16.0809   30.4450 C   0  0  0  0  0  0  0  0  0  0  0  0
   -5.1700  -16.3440   30.8291 C   0  0  0  0  0  0  0  0  0  0  0  0
   -4.0210  -16.1821   29.9837 C   0  0  0  0  0  0  0  0  0  0  0  0
   -3.9599  -16.0599   28.2597 C   0  0  0  0  0  0  0  0  0  0  0  0
   -2.6521  -14.8256   27.3782 N   0  0  0  0  0  0  0  0  0  0  0  0
   -3.4530  -13.1096   26.6608 C   0  0  0  0  0  0  0  0  0  0  0  0
   -2.0659  -11.9030   25.7416 N   0  0  0  0  0  0  0  0  0  0  0  0
   -2.3755  -10.2114   24.4824 C   0  0  0  0  0  0  0  0  0  0  0  0
   -1.6045   -9.5277   22.7832 C   0  0  0  0  0  0  0  0  0  0  0  0
   -0.1225  -10.2900   22.4725 C   0  0  0  0  0  0  0  0  0  0  0  0
    0.9960  -11.4925   23.7184 C   0  0  0  0  0  0  0  0  0  0  0  0
    2.7251  -11.6186   23.2074 C   0  0  0  0  0  0  0  0  0  0  0  0
    3.7112  -10.4032   22.7332 C   0  0  0  0  0  0  0  0  0  0  0  0
    4.7897  -10.9662   22.2164 C   0  0  0  0  0  0  0  0  0  0  0  0
    4.1899  -12.1393   21.6734 N   0  0  0  0  0  0  0  0  0  0  0  0
    3.3553  -12.6480   22.7642 N   0  0  0  0  0  0  0  0  0  0  0  0
    0.1378  -11.7491   25.7615 C   0  0  0  0  0  0  0  0  0  0  0  0
   -5.4283  -13.5425   26.9508 N   0  0  0  0  0  0  0  0  0  0  0  0
   -5.8007  -15.1002   28.3130 C   0  0  0  0  0  0  0  0  0  0  0  0
   -6.8267  -15.3750   29.2801 C   0  0  0  0  0  0  0  0  0  0  0  0
   -7.2589  -16.2052   31.2097 H   0  0  0  0  0  0  0  0  0  0  0  0
   -4.9889  -16.5702   31.8822 H   0  0  0  0  0  0  0  0  0  0  0  0
   -3.1200  -15.8499   30.5067 H   0  0  0  0  0  0  0  0  0  0  0  0
   -2.0907  -15.1886   26.6569 H   0  0  0  0  0  0  0  0  0  0  0  0
   -3.3998  -10.3170   23.9103 H   0  0  0  0  0  0  0  0  0  0  0  0
   -2.3911   -9.2126   25.0809 H   0  0  0  0  0  0  0  0  0  0  0  0
   -2.3263   -9.6769   21.9605 H   0  0  0  0  0  0  0  0  0  0  0  0
   -1.4939   -8.4343   22.8955 H   0  0  0  0  0  0  0  0  0  0  0  0
   -0.5034  -10.8768   21.6541 H   0  0  0  0  0  0  0  0  0  0  0  0
    0.4529   -9.5550   21.8722 H   0  0  0  0  0  0  0  0  0  0  0  0
    0.5320  -12.0230   22.8970 H   0  0  0  0  0  0  0  0  0  0  0  0
    3.5472   -9.3252   22.7993 H   0  0  0  0  0  0  0  0  0  0  0  0
    5.7532  -10.6117   21.8482 H   0  0  0  0  0  0  0  0  0  0  0  0
    2.9433  -13.5655   22.6260 H   0  0  0  0  0  0  0  0  0  0  0  0
    0.6516  -12.8673   26.0378 H   0  0  0  0  0  0  0  0  0  0  0  0
    0.7506  -11.2009   26.6222 H   0  0  0  0  0  0  0  0  0  0  0  0
   -7.7904  -14.8867   29.1834 H   0  0  0  0  0  0  0  0  0  0  0  0
  1  2  2  0
  2  3  1  0
  3  4  2  0
  4  5  1  0
  5  6  1  0
  6  7  1  0
  7  8  1  0
  8  9  1  0
  9 10  1  0
 10 11  1  0
 11 12  1  0
 12 13  2  0
 13 14  1  0
 14 15  2  0
 15 16  1  0
 11 17  1  0
  6 18  2  0
 18 19  1  0
 19 20  2  0
 20  1  1  0
 19  4  1  0
 17  7  1  0
 16 12  1  0
  1 21  1  0
  2 22  1  0
  3 23  1  0
  5 24  1  0
  8 25  1  0
  8 26  1  0
  9 27  1  0
  9 28  1  0
 10 29  1  0
 10 30  1  0
 11 31  1  0
 13 32  1  0
 14 33  1  0
 16 34  1  0
 17 35  1  0
 17 36  1  0
 20 37  1  0
M  END
>  <Energy>  (326) 
1870.6131837595897

>  <compound_id>  (326) 
35248

>  <target_id>  (326) 
1

>  <reference_id>  (326) 
94

>  <inspiration_ids>  (326) 
[94, 122]

>  <energy_score>  (326) 
1821.2876114304306

>  <distance_score>  (326) 
13.415544918171323

>  <path>  (326) 
/opt/xchem-fragalysis-2/maxwin/BulkDock/SCRATCH/511015/C35248-P94/C35248-P94.minimised.mol

>  <scratch_subdir>  (326) 
/opt/xchem-fragalysis-2/maxwin/BulkDock/SCRATCH/511015/C35248-P94

>  <fragmenstein_runtime>  (326) 
17.618629455566406

>  <fragmenstein_outcome>  (326) 
too moved

>  <fragmenstein_mode>  (326) 
expansion

>  <fragmenstein_error>  (326) 


$$$$
C35248-P122
     RDKit          3D

 37 40  0  0  0  0  0  0  0  0999 V2000
   -4.6628  -17.5936   33.2887 C   0  0  0  0  0  0  0  0  0  0  0  0
   -5.4615  -16.8651   32.4063 C   0  0  0  0  0  0  0  0  0  0  0  0
   -4.9190  -15.8352   31.6249 C   0  0  0  0  0  0  0  0  0  0  0  0
   -3.5359  -15.6077   31.7319 C   0  0  0  0  0  0  0  0  0  0  0  0
   -2.6433  -14.7969   31.0450 N   0  0  0  0  0  0  0  0  0  0  0  0
   -1.3520  -15.2912   31.2458 C   0  0  0  0  0  0  0  0  0  0  0  0
   -0.4171  -15.4750   30.1352 N   0  0  0  0  0  0  0  0  0  0  0  0
   -1.0545  -15.5190   28.4593 C   0  0  0  0  0  0  0  0  0  0  0  0
   -0.9190  -17.2368   27.6027 C   0  0  0  0  0  0  0  0  0  0  0  0
    0.6937  -17.5375   28.0083 C   0  0  0  0  0  0  0  0  0  0  0  0
    1.6104  -16.5944   28.8878 C   0  0  0  0  0  0  0  0  0  0  0  0
    3.2511  -16.2836   28.5814 C   0  0  0  0  0  0  0  0  0  0  0  0
    4.2385  -15.4831   29.1540 C   0  0  0  0  0  0  0  0  0  0  0  0
    5.2797  -15.3647   28.1992 C   0  0  0  0  0  0  0  0  0  0  0  0
    5.0624  -16.1370   27.1372 N   0  0  0  0  0  0  0  0  0  0  0  0
    3.9171  -16.7760   27.4628 N   0  0  0  0  0  0  0  0  0  0  0  0
    0.8428  -16.5087   30.3791 C   0  0  0  0  0  0  0  0  0  0  0  0
   -1.3742  -15.9424   32.4135 N   0  0  0  0  0  0  0  0  0  0  0  0
   -2.7144  -16.3070   32.6075 C   0  0  0  0  0  0  0  0  0  0  0  0
   -3.2917  -17.3071   33.4184 C   0  0  0  0  0  0  0  0  0  0  0  0
   -5.1058  -18.3975   33.8727 H   0  0  0  0  0  0  0  0  0  0  0  0
   -6.5158  -17.1163   32.3175 H   0  0  0  0  0  0  0  0  0  0  0  0
   -5.5387  -15.2801   30.9307 H   0  0  0  0  0  0  0  0  0  0  0  0
   -2.8724  -14.2076   30.2656 H   0  0  0  0  0  0  0  0  0  0  0  0
   -2.0903  -15.1776   28.4164 H   0  0  0  0  0  0  0  0  0  0  0  0
   -0.6445  -14.7514   27.8625 H   0  0  0  0  0  0  0  0  0  0  0  0
   -0.8759  -17.7275   26.6098 H   0  0  0  0  0  0  0  0  0  0  0  0
   -1.9699  -17.5320   27.5607 H   0  0  0  0  0  0  0  0  0  0  0  0
    1.2846  -17.8385   27.1769 H   0  0  0  0  0  0  0  0  0  0  0  0
    0.4971  -18.3078   28.7398 H   0  0  0  0  0  0  0  0  0  0  0  0
    1.3954  -15.7440   28.3476 H   0  0  0  0  0  0  0  0  0  0  0  0
    4.2021  -14.9839   30.1098 H   0  0  0  0  0  0  0  0  0  0  0  0
    6.1814  -14.7689   28.2525 H   0  0  0  0  0  0  0  0  0  0  0  0
    3.5705  -17.4941   26.8374 H   0  0  0  0  0  0  0  0  0  0  0  0
    1.4569  -16.1716   31.2332 H   0  0  0  0  0  0  0  0  0  0  0  0
    0.5420  -17.5001   30.7443 H   0  0  0  0  0  0  0  0  0  0  0  0
   -2.6637  -17.8867   34.0852 H   0  0  0  0  0  0  0  0  0  0  0  0
  1  2  2  0
  2  3  1  0
  3  4  2  0
  4  5  1  0
  5  6  1  0
  6  7  1  0
  7  8  1  0
  8  9  1  0
  9 10  1  0
 10 11  1  0
 11 12  1  0
 12 13  2  0
 13 14  1  0
 14 15  2  0
 15 16  1  0
 11 17  1  0
  6 18  2  0
 18 19  1  0
 19 20  2  0
 20  1  1  0
 19  4  1  0
 17  7  1  0
 16 12  1  0
  1 21  1  0
  2 22  1  0
  3 23  1  0
  5 24  1  0
  8 25  1  0
  8 26  1  0
  9 27  1  0
  9 28  1  0
 10 29  1  0
 10 30  1  0
 11 31  1  0
 13 32  1  0
 14 33  1  0
 16 34  1  0
 17 35  1  0
 17 36  1  0
 20 37  1  0
M  END
>  <Energy>  (327) 
219.75490314357836

>  <compound_id>  (327) 
35248

>  <target_id>  (327) 
1

>  <reference_id>  (327) 
122

>  <inspiration_ids>  (327) 
[94, 122]

>  <energy_score>  (327) 
170.4293308144297

>  <distance_score>  (327) 
15.799991771743182

>  <path>  (327) 
/opt/xchem-fragalysis-2/maxwin/BulkDock/SCRATCH/511015/C35248-P122/C35248-P122.minimised.mol

>  <scratch_subdir>  (327) 
/opt/xchem-fragalysis-2/maxwin/BulkDock/SCRATCH/511015/C35248-P122

>  <fragmenstein_runtime>  (327) 
19.76098895072937

>  <fragmenstein_outcome>  (327) 
too moved

>  <fragmenstein_mode>  (327) 
expansion

>  <fragmenstein_error>  (327) 


$$$$
C35249-P94
     RDKit          3D

 44 47  0  0  0  0  0  0  0  0999 V2000
   -2.6439   -9.8832   24.0485 O   0  0  0  0  0  0  0  0  0  0  0  0
   -3.5485  -10.6230   23.6564 C   0  0  0  0  0  0  0  0  0  0  0  0
   -4.3603   -9.8489   22.1187 C   0  0  0  0  0  0  0  0  0  0  0  0
   -3.0004   -9.2167   21.3557 C   0  0  0  0  0  0  0  0  0  0  0  0
   -2.4370   -9.3340   20.0992 C   0  0  0  0  0  0  0  0  0  0  0  0
   -1.3940   -8.3698   20.0569 C   0  0  0  0  0  0  0  0  0  0  0  0
   -1.2906   -7.6797   21.1910 N   0  0  0  0  0  0  0  0  0  0  0  0
   -2.2308   -8.2433   21.9767 N   0  0  0  0  0  0  0  0  0  0  0  0
   -3.8561  -12.3361   24.3762 N   0  0  0  0  0  0  0  0  0  0  0  0
   -2.8223  -13.4526   25.7103 C   0  0  0  0  0  0  0  0  0  0  0  0
   -1.7112  -14.2855   25.7011 C   0  0  0  0  0  0  0  0  0  0  0  0
   -1.8986  -15.2545   27.3544 C   0  0  0  0  0  0  0  0  0  0  0  0
   -2.5677  -16.7773   27.4511 C   0  0  0  0  0  0  0  0  0  0  0  0
   -3.7662  -17.0177   26.7551 N   0  0  0  0  0  0  0  0  0  0  0  0
   -5.0298  -18.4898   27.2881 C   0  0  0  0  0  0  0  0  0  0  0  0
   -5.1809  -20.0663   26.4484 N   0  0  0  0  0  0  0  0  0  0  0  0
   -6.3335  -21.3874   26.9506 C   0  0  0  0  0  0  0  0  0  0  0  0
   -6.9195  -22.6420   27.2406 C   0  0  0  0  0  0  0  0  0  0  0  0
   -8.5243  -23.0248   27.8940 C   0  0  0  0  0  0  0  0  0  0  0  0
   -9.6737  -22.1713   28.1683 C   0  0  0  0  0  0  0  0  0  0  0  0
   -9.1686  -20.8778   27.6237 C   0  0  0  0  0  0  0  0  0  0  0  0
   -7.3465  -20.6827   27.3363 C   0  0  0  0  0  0  0  0  0  0  0  0
   -6.2623  -19.6515   26.6202 N   0  0  0  0  0  0  0  0  0  0  0  0
   -3.1491  -15.6186   25.2411 C   0  0  0  0  0  0  0  0  0  0  0  0
   -4.8187  -10.5005   21.3676 H   0  0  0  0  0  0  0  0  0  0  0  0
   -4.8059   -8.8414   22.0946 H   0  0  0  0  0  0  0  0  0  0  0  0
   -2.7431   -9.9936   19.3022 H   0  0  0  0  0  0  0  0  0  0  0  0
   -0.7196   -8.1458   19.2415 H   0  0  0  0  0  0  0  0  0  0  0  0
   -2.3366   -7.9271   22.9421 H   0  0  0  0  0  0  0  0  0  0  0  0
   -4.7032  -12.7240   23.9604 H   0  0  0  0  0  0  0  0  0  0  0  0
   -3.2217  -12.9925   26.6114 H   0  0  0  0  0  0  0  0  0  0  0  0
   -0.9517  -13.5254   25.6665 H   0  0  0  0  0  0  0  0  0  0  0  0
   -1.3776  -14.7941   24.7754 H   0  0  0  0  0  0  0  0  0  0  0  0
   -2.2287  -14.7646   28.2344 H   0  0  0  0  0  0  0  0  0  0  0  0
   -0.9859  -15.2552   27.9286 H   0  0  0  0  0  0  0  0  0  0  0  0
   -1.8497  -17.5609   27.2573 H   0  0  0  0  0  0  0  0  0  0  0  0
   -3.2193  -16.5956   28.2792 H   0  0  0  0  0  0  0  0  0  0  0  0
   -6.1344  -23.3641   27.2261 H   0  0  0  0  0  0  0  0  0  0  0  0
   -8.8272  -24.0386   28.2060 H   0  0  0  0  0  0  0  0  0  0  0  0
  -10.6519  -22.3841   28.5553 H   0  0  0  0  0  0  0  0  0  0  0  0
   -9.2848  -19.9167   28.0942 H   0  0  0  0  0  0  0  0  0  0  0  0
   -6.2294  -19.5306   25.6284 H   0  0  0  0  0  0  0  0  0  0  0  0
   -3.8920  -15.6204   24.4410 H   0  0  0  0  0  0  0  0  0  0  0  0
   -2.3501  -16.1862   24.8298 H   0  0  0  0  0  0  0  0  0  0  0  0
  1  2  2  0
  2  3  1  0
  3  4  1  0
  4  5  2  0
  5  6  1  0
  6  7  2  0
  7  8  1  0
  2  9  1  0
  9 10  1  0
 10 11  1  0
 11 12  1  0
 12 13  1  0
 13 14  1  0
 14 15  1  0
 15 16  2  0
 16 17  1  0
 17 18  2  0
 18 19  1  0
 19 20  2  0
 20 21  1  0
 21 22  2  0
 22 23  1  0
 14 24  1  0
  8  4  1  0
 24 10  1  0
 23 15  1  0
 22 17  1  0
  3 25  1  0
  3 26  1  0
  5 27  1  0
  6 28  1  0
  8 29  1  0
  9 30  1  0
 10 31  1  0
 11 32  1  0
 11 33  1  0
 12 34  1  0
 12 35  1  0
 13 36  1  0
 13 37  1  0
 18 38  1  0
 19 39  1  0
 20 40  1  0
 21 41  1  0
 23 42  1  0
 24 43  1  0
 24 44  1  0
M  END
>  <Energy>  (328) 
1504.6928982564389

>  <compound_id>  (328) 
35249

>  <target_id>  (328) 
1

>  <reference_id>  (328) 
94

>  <inspiration_ids>  (328) 
[94, 122]

>  <energy_score>  (328) 
1433.6058303994655

>  <distance_score>  (328) 
12.182600838560546

>  <path>  (328) 
/opt/xchem-fragalysis-2/maxwin/BulkDock/SCRATCH/511015/C35249-P94/C35249-P94.minimised.mol

>  <scratch_subdir>  (328) 
/opt/xchem-fragalysis-2/maxwin/BulkDock/SCRATCH/511015/C35249-P94

>  <fragmenstein_runtime>  (328) 
28.008862495422363

>  <fragmenstein_outcome>  (328) 
too moved

>  <fragmenstein_mode>  (328) 
expansion

>  <fragmenstein_error>  (328) 


$$$$
C35249-P122
     RDKit          3D

 44 47  0  0  0  0  0  0  0  0999 V2000
   -5.3354   -8.4556   18.9904 O   0  0  0  0  0  0  0  0  0  0  0  0
   -5.0667   -9.2333   19.8666 C   0  0  0  0  0  0  0  0  0  0  0  0
   -3.5829   -9.2123   20.4509 C   0  0  0  0  0  0  0  0  0  0  0  0
   -2.5944   -8.1472   19.8758 C   0  0  0  0  0  0  0  0  0  0  0  0
   -2.7245   -6.8000   19.5715 C   0  0  0  0  0  0  0  0  0  0  0  0
   -1.4477   -6.3482   19.1734 C   0  0  0  0  0  0  0  0  0  0  0  0
   -0.5421   -7.3190   19.2138 N   0  0  0  0  0  0  0  0  0  0  0  0
   -1.2490   -8.3936   19.6418 N   0  0  0  0  0  0  0  0  0  0  0  0
   -5.8926  -10.2927   20.5043 N   0  0  0  0  0  0  0  0  0  0  0  0
   -7.2920  -10.7889   20.1823 C   0  0  0  0  0  0  0  0  0  0  0  0
   -7.2573  -11.3483   18.7576 C   0  0  0  0  0  0  0  0  0  0  0  0
   -8.5838  -11.9694   18.3678 C   0  0  0  0  0  0  0  0  0  0  0  0
   -8.8741  -13.1591   19.2615 C   0  0  0  0  0  0  0  0  0  0  0  0
   -9.0978  -12.7445   20.6616 N   0  0  0  0  0  0  0  0  0  0  0  0
   -9.5695  -13.8307   21.4177 C   0  0  0  0  0  0  0  0  0  0  0  0
   -9.2117  -15.1037   21.3227 N   0  0  0  0  0  0  0  0  0  0  0  0
  -10.1212  -15.8556   22.0401 C   0  0  0  0  0  0  0  0  0  0  0  0
  -10.2388  -17.2527   22.1756 C   0  0  0  0  0  0  0  0  0  0  0  0
  -11.3771  -17.7720   22.8048 C   0  0  0  0  0  0  0  0  0  0  0  0
  -12.3168  -16.9171   23.3854 C   0  0  0  0  0  0  0  0  0  0  0  0
  -12.1680  -15.5232   23.3364 C   0  0  0  0  0  0  0  0  0  0  0  0
  -11.0773  -15.0285   22.6103 C   0  0  0  0  0  0  0  0  0  0  0  0
  -10.7056  -13.7544   22.2071 N   0  0  0  0  0  0  0  0  0  0  0  0
   -8.0394  -11.7784   21.2132 C   0  0  0  0  0  0  0  0  0  0  0  0
   -3.1551  -10.2078   20.2812 H   0  0  0  0  0  0  0  0  0  0  0  0
   -3.6539   -9.0415   21.5306 H   0  0  0  0  0  0  0  0  0  0  0  0
   -3.6343   -6.2198   19.6357 H   0  0  0  0  0  0  0  0  0  0  0  0
   -1.1506   -5.3567   18.8600 H   0  0  0  0  0  0  0  0  0  0  0  0
   -0.7388   -9.2710   19.7424 H   0  0  0  0  0  0  0  0  0  0  0  0
   -5.3651  -10.7102   21.2782 H   0  0  0  0  0  0  0  0  0  0  0  0
   -7.8988   -9.8740   20.1463 H   0  0  0  0  0  0  0  0  0  0  0  0
   -6.4571  -12.0924   18.6637 H   0  0  0  0  0  0  0  0  0  0  0  0
   -7.0137  -10.5478   18.0484 H   0  0  0  0  0  0  0  0  0  0  0  0
   -8.5335  -12.3023   17.3248 H   0  0  0  0  0  0  0  0  0  0  0  0
   -9.3883  -11.2273   18.4356 H   0  0  0  0  0  0  0  0  0  0  0  0
   -9.7760  -13.6555   18.8792 H   0  0  0  0  0  0  0  0  0  0  0  0
   -8.0536  -13.8831   19.2037 H   0  0  0  0  0  0  0  0  0  0  0  0
   -9.5067  -17.9018   21.7060 H   0  0  0  0  0  0  0  0  0  0  0  0
  -11.5442  -18.8474   22.8044 H   0  0  0  0  0  0  0  0  0  0  0  0
  -13.2150  -17.3286   23.8409 H   0  0  0  0  0  0  0  0  0  0  0  0
  -12.9193  -14.8632   23.7577 H   0  0  0  0  0  0  0  0  0  0  0  0
  -11.2227  -12.9054   22.3670 H   0  0  0  0  0  0  0  0  0  0  0  0
   -8.5498  -11.1383   21.9427 H   0  0  0  0  0  0  0  0  0  0  0  0
   -7.2815  -12.3159   21.7749 H   0  0  0  0  0  0  0  0  0  0  0  0
  1  2  2  0
  2  3  1  0
  3  4  1  0
  4  5  2  0
  5  6  1  0
  6  7  2  0
  7  8  1  0
  2  9  1  0
  9 10  1  0
 10 11  1  0
 11 12  1  0
 12 13  1  0
 13 14  1  0
 14 15  1  0
 15 16  2  0
 16 17  1  0
 17 18  2  0
 18 19  1  0
 19 20  2  0
 20 21  1  0
 21 22  2  0
 22 23  1  0
 14 24  1  0
  8  4  1  0
 24 10  1  0
 23 15  1  0
 22 17  1  0
  3 25  1  0
  3 26  1  0
  5 27  1  0
  6 28  1  0
  8 29  1  0
  9 30  1  0
 10 31  1  0
 11 32  1  0
 11 33  1  0
 12 34  1  0
 12 35  1  0
 13 36  1  0
 13 37  1  0
 18 38  1  0
 19 39  1  0
 20 40  1  0
 21 41  1  0
 23 42  1  0
 24 43  1  0
 24 44  1  0
M  END
>  <Energy>  (329) 
56.118506557815863

>  <compound_id>  (329) 
35249

>  <target_id>  (329) 
1

>  <reference_id>  (329) 
122

>  <inspiration_ids>  (329) 
[94, 122]

>  <energy_score>  (329) 
-14.968561299164662

>  <distance_score>  (329) 
14.213747943849453

>  <path>  (329) 
/opt/xchem-fragalysis-2/maxwin/BulkDock/SCRATCH/511015/C35249-P122/C35249-P122.minimised.mol

>  <scratch_subdir>  (329) 
/opt/xchem-fragalysis-2/maxwin/BulkDock/SCRATCH/511015/C35249-P122

>  <fragmenstein_runtime>  (329) 
35.57822585105896

>  <fragmenstein_outcome>  (329) 
too moved

>  <fragmenstein_mode>  (329) 
expansion

>  <fragmenstein_error>  (329) 


$$$$
C35250-P94
     RDKit          3D

 44 47  0  0  0  0  0  0  0  0999 V2000
    1.1729  -14.0081   23.7177 O   0  0  0  0  0  0  0  0  0  0  0  0
    1.7154  -13.2145   24.4375 C   0  0  0  0  0  0  0  0  0  0  0  0
    2.9009  -12.1095   23.3813 C   0  0  0  0  0  0  0  0  0  0  0  0
    3.8407  -10.4516   22.6745 C   0  0  0  0  0  0  0  0  0  0  0  0
    5.2804  -10.1055   22.7001 C   0  0  0  0  0  0  0  0  0  0  0  0
    5.4515   -8.7371   22.3575 C   0  0  0  0  0  0  0  0  0  0  0  0
    4.2974   -8.1308   22.1095 N   0  0  0  0  0  0  0  0  0  0  0  0
    3.3407   -9.0937   22.2858 N   0  0  0  0  0  0  0  0  0  0  0  0
    1.1785  -13.1601   26.1742 N   0  0  0  0  0  0  0  0  0  0  0  0
   -0.2662  -14.0707   27.1301 C   0  0  0  0  0  0  0  0  0  0  0  0
   -0.9945  -15.2188   28.4825 C   0  0  0  0  0  0  0  0  0  0  0  0
   -2.5639  -15.0895   29.5033 C   0  0  0  0  0  0  0  0  0  0  0  0
   -3.5512  -16.1665   28.8748 N   0  0  0  0  0  0  0  0  0  0  0  0
   -5.0570  -16.3763   29.5727 C   0  0  0  0  0  0  0  0  0  0  0  0
   -5.6917  -17.5112   29.8666 N   0  0  0  0  0  0  0  0  0  0  0  0
   -6.1628  -17.4788   31.6580 C   0  0  0  0  0  0  0  0  0  0  0  0
   -6.0750  -18.4578   32.7912 C   0  0  0  0  0  0  0  0  0  0  0  0
   -6.5273  -18.2340   34.0830 C   0  0  0  0  0  0  0  0  0  0  0  0
   -7.0826  -17.0203   34.3235 C   0  0  0  0  0  0  0  0  0  0  0  0
   -6.9446  -16.0401   33.3446 C   0  0  0  0  0  0  0  0  0  0  0  0
   -6.1194  -16.2203   32.0768 C   0  0  0  0  0  0  0  0  0  0  0  0
   -5.7828  -15.4551   30.5917 N   0  0  0  0  0  0  0  0  0  0  0  0
   -2.5906  -16.4910   27.4192 C   0  0  0  0  0  0  0  0  0  0  0  0
   -1.9973  -14.8677   26.4745 C   0  0  0  0  0  0  0  0  0  0  0  0
    3.3601  -12.8276   22.7483 H   0  0  0  0  0  0  0  0  0  0  0  0
    2.0272  -11.7618   22.8574 H   0  0  0  0  0  0  0  0  0  0  0  0
    6.1026  -10.7296   23.0173 H   0  0  0  0  0  0  0  0  0  0  0  0
    6.3708   -8.1691   22.3011 H   0  0  0  0  0  0  0  0  0  0  0  0
    2.3531   -8.8959   22.1277 H   0  0  0  0  0  0  0  0  0  0  0  0
    1.6570  -12.3985   26.6217 H   0  0  0  0  0  0  0  0  0  0  0  0
   -0.6685  -13.5028   26.0380 H   0  0  0  0  0  0  0  0  0  0  0  0
   -0.3020  -15.3558   29.3172 H   0  0  0  0  0  0  0  0  0  0  0  0
   -1.7683  -14.5449   28.2483 H   0  0  0  0  0  0  0  0  0  0  0  0
   -2.9594  -14.0808   29.5692 H   0  0  0  0  0  0  0  0  0  0  0  0
   -2.3502  -15.5639   30.4776 H   0  0  0  0  0  0  0  0  0  0  0  0
   -5.6931  -19.4672   32.6111 H   0  0  0  0  0  0  0  0  0  0  0  0
   -6.5300  -19.0319   34.8161 H   0  0  0  0  0  0  0  0  0  0  0  0
   -7.6237  -16.8199   35.2417 H   0  0  0  0  0  0  0  0  0  0  0  0
   -7.5686  -15.1524   33.5014 H   0  0  0  0  0  0  0  0  0  0  0  0
   -5.9034  -14.4609   30.4502 H   0  0  0  0  0  0  0  0  0  0  0  0
   -3.1616  -17.1231   26.8185 H   0  0  0  0  0  0  0  0  0  0  0  0
   -1.7275  -17.1537   27.5176 H   0  0  0  0  0  0  0  0  0  0  0  0
   -2.0017  -15.0357   25.3652 H   0  0  0  0  0  0  0  0  0  0  0  0
   -2.7313  -14.0806   26.4466 H   0  0  0  0  0  0  0  0  0  0  0  0
  1  2  2  0
  2  3  1  0
  3  4  1  0
  4  5  2  0
  5  6  1  0
  6  7  2  0
  7  8  1  0
  2  9  1  0
  9 10  1  0
 10 11  1  0
 11 12  1  0
 12 13  1  0
 13 14  1  0
 14 15  2  0
 15 16  1  0
 16 17  2  0
 17 18  1  0
 18 19  2  0
 19 20  1  0
 20 21  2  0
 21 22  1  0
 13 23  1  0
 23 24  1  0
  8  4  1  0
 24 10  1  0
 22 14  1  0
 21 16  1  0
  3 25  1  0
  3 26  1  0
  5 27  1  0
  6 28  1  0
  8 29  1  0
  9 30  1  0
 10 31  1  0
 11 32  1  0
 11 33  1  0
 12 34  1  0
 12 35  1  0
 17 36  1  0
 18 37  1  0
 19 38  1  0
 20 39  1  0
 22 40  1  0
 23 41  1  0
 23 42  1  0
 24 43  1  0
 24 44  1  0
M  END
>  <Energy>  (330) 
1006.2755522228682

>  <compound_id>  (330) 
35250

>  <target_id>  (330) 
1

>  <reference_id>  (330) 
94

>  <inspiration_ids>  (330) 
[94, 122]

>  <energy_score>  (330) 
977.8706102927067

>  <distance_score>  (330) 
11.272713998174439

>  <path>  (330) 
/opt/xchem-fragalysis-2/maxwin/BulkDock/SCRATCH/511015/C35250-P94/C35250-P94.minimised.mol

>  <scratch_subdir>  (330) 
/opt/xchem-fragalysis-2/maxwin/BulkDock/SCRATCH/511015/C35250-P94

>  <fragmenstein_runtime>  (330) 
25.494397401809692

>  <fragmenstein_outcome>  (330) 
too moved

>  <fragmenstein_mode>  (330) 
expansion

>  <fragmenstein_error>  (330) 


$$$$
C35250-P122
     RDKit          3D

 44 47  0  0  0  0  0  0  0  0999 V2000
   -0.1736   -9.9008   22.5382 O   0  0  0  0  0  0  0  0  0  0  0  0
   -0.8123  -10.5856   21.8105 C   0  0  0  0  0  0  0  0  0  0  0  0
   -1.5449   -9.7054   20.7205 C   0  0  0  0  0  0  0  0  0  0  0  0
   -0.7100   -8.3628   20.4201 C   0  0  0  0  0  0  0  0  0  0  0  0
   -0.2400   -7.3387   21.2325 C   0  0  0  0  0  0  0  0  0  0  0  0
    0.6132   -6.5497   20.4284 C   0  0  0  0  0  0  0  0  0  0  0  0
    0.6573   -6.9802   19.1668 N   0  0  0  0  0  0  0  0  0  0  0  0
   -0.1295   -8.0788   19.2009 N   0  0  0  0  0  0  0  0  0  0  0  0
   -1.0971  -12.1525   21.8583 N   0  0  0  0  0  0  0  0  0  0  0  0
   -0.5684  -13.6733   23.3333 C   0  0  0  0  0  0  0  0  0  0  0  0
   -1.3718  -13.7718   25.2486 C   0  0  0  0  0  0  0  0  0  0  0  0
   -2.0030  -14.8877   26.7816 C   0  0  0  0  0  0  0  0  0  0  0  0
   -2.5969  -16.6060   26.9116 N   0  0  0  0  0  0  0  0  0  0  0  0
   -4.1034  -17.1792   27.5572 C   0  0  0  0  0  0  0  0  0  0  0  0
   -5.5354  -18.0210   27.2969 N   0  0  0  0  0  0  0  0  0  0  0  0
   -7.1448  -16.9152   27.6134 C   0  0  0  0  0  0  0  0  0  0  0  0
   -8.3276  -16.0974   26.8842 C   0  0  0  0  0  0  0  0  0  0  0  0
   -9.5600  -16.0654   27.4063 C   0  0  0  0  0  0  0  0  0  0  0  0
   -9.6648  -17.1918   28.1072 C   0  0  0  0  0  0  0  0  0  0  0  0
   -8.4577  -18.0086   28.3365 C   0  0  0  0  0  0  0  0  0  0  0  0
   -7.2328  -17.4343   28.6926 C   0  0  0  0  0  0  0  0  0  0  0  0
   -5.4405  -17.1734   29.0036 N   0  0  0  0  0  0  0  0  0  0  0  0
   -2.6794  -16.2420   25.1766 C   0  0  0  0  0  0  0  0  0  0  0  0
   -1.7554  -15.1839   24.0174 C   0  0  0  0  0  0  0  0  0  0  0  0
   -2.4885   -9.3779   21.1770 H   0  0  0  0  0  0  0  0  0  0  0  0
   -1.8147  -10.2669   19.8246 H   0  0  0  0  0  0  0  0  0  0  0  0
   -0.4238   -7.2360   22.2939 H   0  0  0  0  0  0  0  0  0  0  0  0
    1.1950   -5.6861   20.7191 H   0  0  0  0  0  0  0  0  0  0  0  0
   -0.1397   -8.6922   18.3959 H   0  0  0  0  0  0  0  0  0  0  0  0
   -1.6301  -12.4344   21.0114 H   0  0  0  0  0  0  0  0  0  0  0  0
   -0.1666  -14.3900   22.6383 H   0  0  0  0  0  0  0  0  0  0  0  0
   -0.5545  -13.3352   25.8222 H   0  0  0  0  0  0  0  0  0  0  0  0
   -2.1630  -12.9768   25.3248 H   0  0  0  0  0  0  0  0  0  0  0  0
   -1.4709  -14.8091   27.7266 H   0  0  0  0  0  0  0  0  0  0  0  0
   -2.8044  -14.2192   26.6836 H   0  0  0  0  0  0  0  0  0  0  0  0
   -8.1602  -15.6157   25.9217 H   0  0  0  0  0  0  0  0  0  0  0  0
  -10.3844  -15.4697   27.0558 H   0  0  0  0  0  0  0  0  0  0  0  0
  -10.6584  -17.5038   28.3972 H   0  0  0  0  0  0  0  0  0  0  0  0
   -8.4731  -19.0656   28.2744 H   0  0  0  0  0  0  0  0  0  0  0  0
   -5.2534  -16.3598   29.5478 H   0  0  0  0  0  0  0  0  0  0  0  0
   -3.6403  -15.8556   24.9069 H   0  0  0  0  0  0  0  0  0  0  0  0
   -2.4181  -17.2672   25.0711 H   0  0  0  0  0  0  0  0  0  0  0  0
   -0.9875  -15.6239   24.4459 H   0  0  0  0  0  0  0  0  0  0  0  0
   -2.6819  -15.1845   23.4498 H   0  0  0  0  0  0  0  0  0  0  0  0
  1  2  2  0
  2  3  1  0
  3  4  1  0
  4  5  2  0
  5  6  1  0
  6  7  2  0
  7  8  1  0
  2  9  1  0
  9 10  1  0
 10 11  1  0
 11 12  1  0
 12 13  1  0
 13 14  1  0
 14 15  2  0
 15 16  1  0
 16 17  2  0
 17 18  1  0
 18 19  2  0
 19 20  1  0
 20 21  2  0
 21 22  1  0
 13 23  1  0
 23 24  1  0
  8  4  1  0
 24 10  1  0
 22 14  1  0
 21 16  1  0
  3 25  1  0
  3 26  1  0
  5 27  1  0
  6 28  1  0
  8 29  1  0
  9 30  1  0
 10 31  1  0
 11 32  1  0
 11 33  1  0
 12 34  1  0
 12 35  1  0
 17 36  1  0
 18 37  1  0
 19 38  1  0
 20 39  1  0
 22 40  1  0
 23 41  1  0
 23 42  1  0
 24 43  1  0
 24 44  1  0
M  END
>  <Energy>  (331) 
1405.6026755536157

>  <compound_id>  (331) 
35250

>  <target_id>  (331) 
1

>  <reference_id>  (331) 
122

>  <inspiration_ids>  (331) 
[94, 122]

>  <energy_score>  (331) 
1377.1977336234058

>  <distance_score>  (331) 
11.731511235297774

>  <path>  (331) 
/opt/xchem-fragalysis-2/maxwin/BulkDock/SCRATCH/511015/C35250-P122/C35250-P122.minimised.mol

>  <scratch_subdir>  (331) 
/opt/xchem-fragalysis-2/maxwin/BulkDock/SCRATCH/511015/C35250-P122

>  <fragmenstein_runtime>  (331) 
38.400033712387085

>  <fragmenstein_outcome>  (331) 
too moved

>  <fragmenstein_mode>  (331) 
expansion

>  <fragmenstein_error>  (331) 


$$$$
C6663-P94
     RDKit          3D

 37 41  0  0  0  0  0  0  0  0999 V2000
  -11.8893  -20.7547   29.3848 C   0  0  0  0  0  0  0  0  0  0  0  0
  -12.6072  -19.6056   29.0263 C   0  0  0  0  0  0  0  0  0  0  0  0
  -12.3703  -17.7776   28.6430 C   0  0  0  0  0  0  0  0  0  0  0  0
  -11.2230  -17.0532   28.5704 C   0  0  0  0  0  0  0  0  0  0  0  0
  -10.5106  -18.1947   28.8472 C   0  0  0  0  0  0  0  0  0  0  0  0
  -10.6968  -20.1348   29.4138 C   0  0  0  0  0  0  0  0  0  0  0  0
   -9.2495  -17.9182   28.2092 N   0  0  0  0  0  0  0  0  0  0  0  0
   -9.3455  -16.7639   27.6283 C   0  0  0  0  0  0  0  0  0  0  0  0
  -10.4110  -15.9666   28.0431 N   0  0  0  0  0  0  0  0  0  0  0  0
  -10.1602  -14.4704   27.5678 C   0  0  0  0  0  0  0  0  0  0  0  0
  -10.9664  -13.3947   26.8860 C   0  0  0  0  0  0  0  0  0  0  0  0
  -10.2611  -12.0736   25.9873 C   0  0  0  0  0  0  0  0  0  0  0  0
   -8.6490  -11.3820   26.2843 C   0  0  0  0  0  0  0  0  0  0  0  0
   -8.3411   -9.7084   27.3990 C   0  0  0  0  0  0  0  0  0  0  0  0
   -9.2167   -9.0843   28.2937 N   0  0  0  0  0  0  0  0  0  0  0  0
   -8.5655   -7.9171   28.7225 O   0  0  0  0  0  0  0  0  0  0  0  0
   -7.3524   -7.8057   28.0903 C   0  0  0  0  0  0  0  0  0  0  0  0
   -6.4299   -6.6752   28.2583 C   0  0  0  0  0  0  0  0  0  0  0  0
   -5.2036   -6.5496   28.8966 C   0  0  0  0  0  0  0  0  0  0  0  0
   -4.6440   -5.3250   28.4718 C   0  0  0  0  0  0  0  0  0  0  0  0
   -5.4718   -4.6694   27.6574 N   0  0  0  0  0  0  0  0  0  0  0  0
   -6.5917   -5.4434   27.6439 N   0  0  0  0  0  0  0  0  0  0  0  0
   -7.1786   -8.8259   27.2665 N   0  0  0  0  0  0  0  0  0  0  0  0
   -7.9313  -12.8834   26.9417 C   0  0  0  0  0  0  0  0  0  0  0  0
   -8.6954  -14.1308   27.5003 C   0  0  0  0  0  0  0  0  0  0  0  0
  -12.1837  -21.7721   29.5170 H   0  0  0  0  0  0  0  0  0  0  0  0
  -13.6509  -19.9036   29.1318 H   0  0  0  0  0  0  0  0  0  0  0  0
  -13.1729  -17.1821   28.1632 H   0  0  0  0  0  0  0  0  0  0  0  0
  -10.0150  -20.9043   29.1961 H   0  0  0  0  0  0  0  0  0  0  0  0
   -8.6489  -16.4165   26.8852 H   0  0  0  0  0  0  0  0  0  0  0  0
  -12.0427  -13.5190   26.7503 H   0  0  0  0  0  0  0  0  0  0  0  0
  -11.0200  -11.3955   25.5739 H   0  0  0  0  0  0  0  0  0  0  0  0
   -4.7601   -7.2689   29.5585 H   0  0  0  0  0  0  0  0  0  0  0  0
   -3.6827   -4.8920   28.7174 H   0  0  0  0  0  0  0  0  0  0  0  0
   -7.3840   -5.1305   27.0900 H   0  0  0  0  0  0  0  0  0  0  0  0
   -6.8392  -12.9387   26.9685 H   0  0  0  0  0  0  0  0  0  0  0  0
   -8.0080  -14.7925   28.0179 H   0  0  0  0  0  0  0  0  0  0  0  0
  1  2  2  0
  2  3  1  0
  3  4  2  0
  4  5  1  0
  5  6  2  0
  5  7  1  0
  7  8  2  0
  8  9  1  0
  9 10  1  0
 10 11  2  0
 11 12  1  0
 12 13  2  0
 13 14  1  0
 14 15  2  0
 15 16  1  0
 16 17  1  0
 17 18  1  0
 18 19  2  0
 19 20  1  0
 20 21  2  0
 21 22  1  0
 17 23  2  0
 13 24  1  0
 24 25  2  0
  6  1  1  0
 25 10  1  0
  9  4  1  0
 23 14  1  0
 22 18  1  0
  1 26  1  0
  2 27  1  0
  3 28  1  0
  6 29  1  0
  8 30  1  0
 11 31  1  0
 12 32  1  0
 19 33  1  0
 20 34  1  0
 22 35  1  0
 24 36  1  0
 25 37  1  0
M  END
>  <Energy>  (332) 
697.00924548597243

>  <compound_id>  (332) 
6663

>  <target_id>  (332) 
1

>  <reference_id>  (332) 
94

>  <inspiration_ids>  (332) 
[94, 122]

>  <energy_score>  (332) 
581.8613253653335

>  <distance_score>  (332) 
14.970037640831254

>  <path>  (332) 
/opt/xchem-fragalysis-2/maxwin/BulkDock/SCRATCH/511015/C6663-P94/C6663-P94.minimised.mol

>  <scratch_subdir>  (332) 
/opt/xchem-fragalysis-2/maxwin/BulkDock/SCRATCH/511015/C6663-P94

>  <fragmenstein_runtime>  (332) 
22.599958896636963

>  <fragmenstein_outcome>  (332) 
too moved

>  <fragmenstein_mode>  (332) 
expansion

>  <fragmenstein_error>  (332) 


$$$$
C6663-P122
     RDKit          3D

 37 41  0  0  0  0  0  0  0  0999 V2000
  -11.7311  -25.8379   26.9384 C   0  0  0  0  0  0  0  0  0  0  0  0
  -11.9355  -25.0758   25.7913 C   0  0  0  0  0  0  0  0  0  0  0  0
  -11.7576  -23.6854   25.7953 C   0  0  0  0  0  0  0  0  0  0  0  0
  -11.4104  -23.0615   27.0074 C   0  0  0  0  0  0  0  0  0  0  0  0
  -11.3688  -23.8125   28.1870 C   0  0  0  0  0  0  0  0  0  0  0  0
  -11.4390  -25.2134   28.1493 C   0  0  0  0  0  0  0  0  0  0  0  0
  -11.3139  -23.0092   29.2774 N   0  0  0  0  0  0  0  0  0  0  0  0
  -11.1310  -21.8068   28.7903 C   0  0  0  0  0  0  0  0  0  0  0  0
  -10.9841  -21.7668   27.4054 N   0  0  0  0  0  0  0  0  0  0  0  0
  -10.0731  -20.5757   26.5098 C   0  0  0  0  0  0  0  0  0  0  0  0
   -9.4007  -18.7852   27.4423 C   0  0  0  0  0  0  0  0  0  0  0  0
   -9.5121  -17.2066   26.7046 C   0  0  0  0  0  0  0  0  0  0  0  0
   -9.6409  -16.9158   24.9782 C   0  0  0  0  0  0  0  0  0  0  0  0
   -8.1592  -15.5278   25.0957 C   0  0  0  0  0  0  0  0  0  0  0  0
   -7.8394  -14.5769   26.0878 N   0  0  0  0  0  0  0  0  0  0  0  0
   -6.6799  -13.2572   25.5353 O   0  0  0  0  0  0  0  0  0  0  0  0
   -5.9950  -13.4214   23.7534 C   0  0  0  0  0  0  0  0  0  0  0  0
   -6.4284  -12.2807   22.3409 C   0  0  0  0  0  0  0  0  0  0  0  0
   -7.7572  -11.7413   21.8052 C   0  0  0  0  0  0  0  0  0  0  0  0
   -7.6493  -11.6400   20.2952 C   0  0  0  0  0  0  0  0  0  0  0  0
   -6.4254  -11.7297   19.7576 N   0  0  0  0  0  0  0  0  0  0  0  0
   -5.5024  -11.6677   20.8591 N   0  0  0  0  0  0  0  0  0  0  0  0
   -6.8220  -14.8638   23.9824 N   0  0  0  0  0  0  0  0  0  0  0  0
   -9.9698  -18.4402   23.6918 C   0  0  0  0  0  0  0  0  0  0  0  0
  -10.4177  -20.2920   24.4555 C   0  0  0  0  0  0  0  0  0  0  0  0
  -11.8561  -26.9158   26.9060 H   0  0  0  0  0  0  0  0  0  0  0  0
  -12.2470  -25.5650   24.8711 H   0  0  0  0  0  0  0  0  0  0  0  0
  -11.9234  -23.1151   24.8879 H   0  0  0  0  0  0  0  0  0  0  0  0
  -11.3280  -25.7770   29.0691 H   0  0  0  0  0  0  0  0  0  0  0  0
  -11.0103  -20.9510   29.4251 H   0  0  0  0  0  0  0  0  0  0  0  0
   -8.5880  -18.7802   28.1855 H   0  0  0  0  0  0  0  0  0  0  0  0
   -9.0590  -16.4097   27.3064 H   0  0  0  0  0  0  0  0  0  0  0  0
   -8.7020  -11.6182   22.3005 H   0  0  0  0  0  0  0  0  0  0  0  0
   -8.4915  -11.4625   19.6344 H   0  0  0  0  0  0  0  0  0  0  0  0
   -4.4837  -11.6709   20.8109 H   0  0  0  0  0  0  0  0  0  0  0  0
  -10.0596  -18.2430   22.6239 H   0  0  0  0  0  0  0  0  0  0  0  0
  -10.9940  -20.9706   23.8148 H   0  0  0  0  0  0  0  0  0  0  0  0
  1  2  2  0
  2  3  1  0
  3  4  2  0
  4  5  1  0
  5  6  2  0
  5  7  1  0
  7  8  2  0
  8  9  1  0
  9 10  1  0
 10 11  2  0
 11 12  1  0
 12 13  2  0
 13 14  1  0
 14 15  2  0
 15 16  1  0
 16 17  1  0
 17 18  1  0
 18 19  2  0
 19 20  1  0
 20 21  2  0
 21 22  1  0
 17 23  2  0
 13 24  1  0
 24 25  2  0
  6  1  1  0
 25 10  1  0
  9  4  1  0
 23 14  1  0
 22 18  1  0
  1 26  1  0
  2 27  1  0
  3 28  1  0
  6 29  1  0
  8 30  1  0
 11 31  1  0
 12 32  1  0
 19 33  1  0
 20 34  1  0
 22 35  1  0
 24 36  1  0
 25 37  1  0
M  END
>  <Energy>  (333) 
1398.61446651349

>  <compound_id>  (333) 
6663

>  <target_id>  (333) 
1

>  <reference_id>  (333) 
122

>  <inspiration_ids>  (333) 
[94, 122]

>  <energy_score>  (333) 
1283.466546392858

>  <distance_score>  (333) 
13.94212458042656

>  <path>  (333) 
/opt/xchem-fragalysis-2/maxwin/BulkDock/SCRATCH/511015/C6663-P122/C6663-P122.minimised.mol

>  <scratch_subdir>  (333) 
/opt/xchem-fragalysis-2/maxwin/BulkDock/SCRATCH/511015/C6663-P122

>  <fragmenstein_runtime>  (333) 
17.614994764328003

>  <fragmenstein_outcome>  (333) 
too moved

>  <fragmenstein_mode>  (333) 
expansion

>  <fragmenstein_error>  (333) 


$$$$
C35251-P94
     RDKit          3D

 34 37  0  0  0  0  0  0  0  0999 V2000
    7.0121  -15.2621   29.9740 C   0  0  0  0  0  0  0  0  0  0  0  0
    6.2730  -16.5905   29.9189 C   0  0  0  0  0  0  0  0  0  0  0  0
    5.5869  -16.8335   28.6219 C   0  0  0  0  0  0  0  0  0  0  0  0
    6.0711  -16.3842   27.4429 N   0  0  0  0  0  0  0  0  0  0  0  0
    5.2082  -16.7786   26.5122 C   0  0  0  0  0  0  0  0  0  0  0  0
    5.4216  -16.1304   25.2086 C   0  0  0  0  0  0  0  0  0  0  0  0
    5.9156  -14.8365   25.0026 C   0  0  0  0  0  0  0  0  0  0  0  0
    6.0464  -14.6646   23.6149 C   0  0  0  0  0  0  0  0  0  0  0  0
    5.6816  -15.7634   22.9545 N   0  0  0  0  0  0  0  0  0  0  0  0
    5.3406  -16.6379   23.9369 N   0  0  0  0  0  0  0  0  0  0  0  0
    4.2364  -17.6484   27.1879 N   0  0  0  0  0  0  0  0  0  0  0  0
    3.2311  -18.6733   26.8834 C   0  0  0  0  0  0  0  0  0  0  0  0
    3.1613  -19.3192   25.6453 C   0  0  0  0  0  0  0  0  0  0  0  0
    2.3418  -20.4499   25.4446 C   0  0  0  0  0  0  0  0  0  0  0  0
    1.5378  -20.9874   26.4588 C   0  0  0  0  0  0  0  0  0  0  0  0
    1.4864  -20.3184   27.6794 C   0  0  0  0  0  0  0  0  0  0  0  0
    0.7111  -20.6038   28.7801 N   0  0  0  0  0  0  0  0  0  0  0  0
    1.1107  -19.7539   29.6934 C   0  0  0  0  0  0  0  0  0  0  0  0
    2.0663  -18.9036   29.2024 N   0  0  0  0  0  0  0  0  0  0  0  0
    2.3271  -19.2156   27.8797 C   0  0  0  0  0  0  0  0  0  0  0  0
    4.4296  -17.4770   28.5420 N   0  0  0  0  0  0  0  0  0  0  0  0
    7.4642  -15.1207   30.9608 H   0  0  0  0  0  0  0  0  0  0  0  0
    6.3355  -14.4224   29.7849 H   0  0  0  0  0  0  0  0  0  0  0  0
    7.8130  -15.2221   29.2279 H   0  0  0  0  0  0  0  0  0  0  0  0
    5.5398  -16.6184   30.7341 H   0  0  0  0  0  0  0  0  0  0  0  0
    6.9832  -17.4058   30.0991 H   0  0  0  0  0  0  0  0  0  0  0  0
    6.1553  -14.1259   25.7815 H   0  0  0  0  0  0  0  0  0  0  0  0
    6.3911  -13.7999   23.0634 H   0  0  0  0  0  0  0  0  0  0  0  0
    5.0715  -17.5730   23.6547 H   0  0  0  0  0  0  0  0  0  0  0  0
    3.7825  -19.0053   24.8131 H   0  0  0  0  0  0  0  0  0  0  0  0
    2.3330  -20.9281   24.4645 H   0  0  0  0  0  0  0  0  0  0  0  0
    0.9271  -21.8666   26.2798 H   0  0  0  0  0  0  0  0  0  0  0  0
    0.7504  -19.6943   30.7119 H   0  0  0  0  0  0  0  0  0  0  0  0
    2.5517  -18.1793   29.7152 H   0  0  0  0  0  0  0  0  0  0  0  0
  1  2  1  0
  2  3  1  0
  3  4  1  0
  4  5  2  0
  5  6  1  0
  6  7  2  0
  7  8  1  0
  8  9  2  0
  9 10  1  0
  5 11  1  0
 11 12  1  0
 12 13  2  0
 13 14  1  0
 14 15  2  0
 15 16  1  0
 16 17  1  0
 17 18  2  0
 18 19  1  0
 19 20  1  0
 11 21  1  0
 21  3  2  0
 10  6  1  0
 20 12  1  0
 20 16  2  0
  1 22  1  0
  1 23  1  0
  1 24  1  0
  2 25  1  0
  2 26  1  0
  7 27  1  0
  8 28  1  0
 10 29  1  0
 13 30  1  0
 14 31  1  0
 15 32  1  0
 18 33  1  0
 19 34  1  0
M  END
>  <Energy>  (334) 
78.430938778016724

>  <compound_id>  (334) 
35251

>  <target_id>  (334) 
1

>  <reference_id>  (334) 
94

>  <inspiration_ids>  (334) 
[94, 122]

>  <energy_score>  (334) 
-20.032251389817247

>  <distance_score>  (334) 
15.919328188293546

>  <path>  (334) 
/opt/xchem-fragalysis-2/maxwin/BulkDock/SCRATCH/511015/C35251-P94/C35251-P94.minimised.mol

>  <scratch_subdir>  (334) 
/opt/xchem-fragalysis-2/maxwin/BulkDock/SCRATCH/511015/C35251-P94

>  <fragmenstein_runtime>  (334) 
24.96777892112732

>  <fragmenstein_outcome>  (334) 
too moved

>  <fragmenstein_mode>  (334) 
expansion

>  <fragmenstein_error>  (334) 


$$$$
C35251-P122
     RDKit          3D

 34 37  0  0  0  0  0  0  0  0999 V2000
   -1.6828   -7.6412   33.5045 C   0  0  0  0  0  0  0  0  0  0  0  0
   -1.1521   -6.9716   32.2454 C   0  0  0  0  0  0  0  0  0  0  0  0
   -1.9737   -7.1960   31.0222 C   0  0  0  0  0  0  0  0  0  0  0  0
   -1.4435   -6.9998   29.8041 N   0  0  0  0  0  0  0  0  0  0  0  0
   -2.3239   -7.0273   28.7900 C   0  0  0  0  0  0  0  0  0  0  0  0
   -1.5656   -6.5030   27.5492 C   0  0  0  0  0  0  0  0  0  0  0  0
   -0.5350   -5.5428   27.6239 C   0  0  0  0  0  0  0  0  0  0  0  0
   -0.1416   -5.2279   26.3149 C   0  0  0  0  0  0  0  0  0  0  0  0
   -0.7787   -5.9874   25.4372 N   0  0  0  0  0  0  0  0  0  0  0  0
   -1.5419   -6.7987   26.1976 N   0  0  0  0  0  0  0  0  0  0  0  0
   -3.8632   -7.5773   29.5047 N   0  0  0  0  0  0  0  0  0  0  0  0
   -5.6491   -8.3826   29.7161 C   0  0  0  0  0  0  0  0  0  0  0  0
   -6.7579   -9.0015   29.0907 C   0  0  0  0  0  0  0  0  0  0  0  0
   -8.1433   -8.8685   29.5191 C   0  0  0  0  0  0  0  0  0  0  0  0
   -8.4946   -9.0827   30.8315 C   0  0  0  0  0  0  0  0  0  0  0  0
   -7.4129   -9.2026   31.6838 C   0  0  0  0  0  0  0  0  0  0  0  0
   -7.4352   -9.6144   32.9941 N   0  0  0  0  0  0  0  0  0  0  0  0
   -6.2004   -9.4917   33.3960 C   0  0  0  0  0  0  0  0  0  0  0  0
   -5.3951   -9.0122   32.4065 N   0  0  0  0  0  0  0  0  0  0  0  0
   -6.1318   -8.8220   31.2298 C   0  0  0  0  0  0  0  0  0  0  0  0
   -3.1535   -7.7953   31.0383 N   0  0  0  0  0  0  0  0  0  0  0  0
   -2.6730   -7.2559   33.7712 H   0  0  0  0  0  0  0  0  0  0  0  0
   -1.0099   -7.4502   34.3464 H   0  0  0  0  0  0  0  0  0  0  0  0
   -1.7662   -8.7255   33.3759 H   0  0  0  0  0  0  0  0  0  0  0  0
   -0.1308   -7.3228   32.0584 H   0  0  0  0  0  0  0  0  0  0  0  0
   -1.0861   -5.8911   32.4201 H   0  0  0  0  0  0  0  0  0  0  0  0
   -0.1876   -5.0741   28.5332 H   0  0  0  0  0  0  0  0  0  0  0  0
    0.5735   -4.4963   25.9655 H   0  0  0  0  0  0  0  0  0  0  0  0
   -2.0892   -7.4699   25.6722 H   0  0  0  0  0  0  0  0  0  0  0  0
   -6.5860  -10.0701   29.2286 H   0  0  0  0  0  0  0  0  0  0  0  0
   -8.9181   -8.8536   28.7546 H   0  0  0  0  0  0  0  0  0  0  0  0
   -9.5142   -9.2428   31.1522 H   0  0  0  0  0  0  0  0  0  0  0  0
   -5.8309   -9.7190   34.3866 H   0  0  0  0  0  0  0  0  0  0  0  0
   -4.3948   -8.8621   32.4578 H   0  0  0  0  0  0  0  0  0  0  0  0
  1  2  1  0
  2  3  1  0
  3  4  1  0
  4  5  2  0
  5  6  1  0
  6  7  2  0
  7  8  1  0
  8  9  2  0
  9 10  1  0
  5 11  1  0
 11 12  1  0
 12 13  2  0
 13 14  1  0
 14 15  2  0
 15 16  1  0
 16 17  1  0
 17 18  2  0
 18 19  1  0
 19 20  1  0
 11 21  1  0
 21  3  2  0
 10  6  1  0
 20 12  1  0
 20 16  2  0
  1 22  1  0
  1 23  1  0
  1 24  1  0
  2 25  1  0
  2 26  1  0
  7 27  1  0
  8 28  1  0
 10 29  1  0
 13 30  1  0
 14 31  1  0
 15 32  1  0
 18 33  1  0
 19 34  1  0
M  END
>  <Energy>  (335) 
402.17197416247024

>  <compound_id>  (335) 
35251

>  <target_id>  (335) 
1

>  <reference_id>  (335) 
122

>  <inspiration_ids>  (335) 
[94, 122]

>  <energy_score>  (335) 
303.7087839946337

>  <distance_score>  (335) 
16.99741630833238

>  <path>  (335) 
/opt/xchem-fragalysis-2/maxwin/BulkDock/SCRATCH/511015/C35251-P122/C35251-P122.minimised.mol

>  <scratch_subdir>  (335) 
/opt/xchem-fragalysis-2/maxwin/BulkDock/SCRATCH/511015/C35251-P122

>  <fragmenstein_runtime>  (335) 
17.236072540283203

>  <fragmenstein_outcome>  (335) 
too moved

>  <fragmenstein_mode>  (335) 
expansion

>  <fragmenstein_error>  (335) 


$$$$
C35252-P94
     RDKit          3D

 33 36  0  0  0  0  0  0  0  0999 V2000
   -2.9063  -13.4983   26.3526 O   0  0  0  0  0  0  0  0  0  0  0  0
   -2.3603  -14.6244   26.6382 C   0  0  0  0  0  0  0  0  0  0  0  0
   -2.5459  -15.5907   28.0208 N   0  0  0  0  0  0  0  0  0  0  0  0
   -3.6064  -16.9644   27.7738 N   0  0  0  0  0  0  0  0  0  0  0  0
   -4.9788  -17.8193   29.0273 C   0  0  0  0  0  0  0  0  0  0  0  0
   -6.9159  -18.2582   29.6379 C   0  0  0  0  0  0  0  0  0  0  0  0
   -8.1853  -19.3527   28.7103 C   0  0  0  0  0  0  0  0  0  0  0  0
   -9.8403  -20.4179   29.4598 C   0  0  0  0  0  0  0  0  0  0  0  0
  -10.0935  -20.3514   31.3470 C   0  0  0  0  0  0  0  0  0  0  0  0
  -10.9693  -20.7958   32.2939 N   0  0  0  0  0  0  0  0  0  0  0  0
  -10.9169  -19.8973   33.3562 C   0  0  0  0  0  0  0  0  0  0  0  0
   -9.8403  -19.0948   33.4838 N   0  0  0  0  0  0  0  0  0  0  0  0
   -9.0194  -19.2141   32.4006 C   0  0  0  0  0  0  0  0  0  0  0  0
   -7.4885  -18.1158   31.4628 C   0  0  0  0  0  0  0  0  0  0  0  0
   -2.5585  -17.0336   26.2870 C   0  0  0  0  0  0  0  0  0  0  0  0
   -1.8311  -18.0338   26.1393 O   0  0  0  0  0  0  0  0  0  0  0  0
   -2.2515  -15.3338   25.5175 N   0  0  0  0  0  0  0  0  0  0  0  0
   -0.9017  -14.2647   24.8365 C   0  0  0  0  0  0  0  0  0  0  0  0
    0.1630  -14.1439   23.7940 C   0  0  0  0  0  0  0  0  0  0  0  0
    1.7237  -13.3001   24.3475 C   0  0  0  0  0  0  0  0  0  0  0  0
    1.5944  -13.3187   25.6712 N   0  0  0  0  0  0  0  0  0  0  0  0
    0.3248  -13.4276   25.9882 N   0  0  0  0  0  0  0  0  0  0  0  0
   -2.7012  -15.1656   28.9355 H   0  0  0  0  0  0  0  0  0  0  0  0
   -4.6185  -18.8534   28.9645 H   0  0  0  0  0  0  0  0  0  0  0  0
   -4.6454  -17.3521   29.9626 H   0  0  0  0  0  0  0  0  0  0  0  0
   -7.5087  -19.7892   27.9461 H   0  0  0  0  0  0  0  0  0  0  0  0
  -10.3879  -21.2391   28.9602 H   0  0  0  0  0  0  0  0  0  0  0  0
  -11.7291  -21.4418   32.1357 H   0  0  0  0  0  0  0  0  0  0  0  0
  -11.7197  -19.9072   34.0846 H   0  0  0  0  0  0  0  0  0  0  0  0
   -6.8714  -17.5980   32.2107 H   0  0  0  0  0  0  0  0  0  0  0  0
   -0.0957  -14.2547   22.7402 H   0  0  0  0  0  0  0  0  0  0  0  0
    2.6260  -13.0777   23.7791 H   0  0  0  0  0  0  0  0  0  0  0  0
    0.1913  -13.6829   26.9373 H   0  0  0  0  0  0  0  0  0  0  0  0
  1  2  2  0
  2  3  1  0
  3  4  1  0
  4  5  1  0
  5  6  1  0
  6  7  2  0
  7  8  1  0
  8  9  2  0
  9 10  1  0
 10 11  1  0
 11 12  2  0
 12 13  1  0
 13 14  2  0
  4 15  1  0
 15 16  2  0
 15 17  1  0
 17 18  1  0
 18 19  2  0
 19 20  1  0
 20 21  2  0
 21 22  1  0
 17  2  1  0
 22 18  1  0
 14  6  1  0
 13  9  1  0
  3 23  1  0
  5 24  1  0
  5 25  1  0
  7 26  1  0
  8 27  1  0
 10 28  1  0
 11 29  1  0
 14 30  1  0
 19 31  1  0
 20 32  1  0
 22 33  1  0
M  END
>  <Energy>  (336) 
1438.5242380372731

>  <compound_id>  (336) 
35252

>  <target_id>  (336) 
1

>  <reference_id>  (336) 
94

>  <inspiration_ids>  (336) 
[94, 122]

>  <energy_score>  (336) 
1371.7811725274692

>  <distance_score>  (336) 
12.748400526728798

>  <path>  (336) 
/opt/xchem-fragalysis-2/maxwin/BulkDock/SCRATCH/511015/C35252-P94/C35252-P94.minimised.mol

>  <scratch_subdir>  (336) 
/opt/xchem-fragalysis-2/maxwin/BulkDock/SCRATCH/511015/C35252-P94

>  <fragmenstein_runtime>  (336) 
18.073546409606934

>  <fragmenstein_outcome>  (336) 
too moved

>  <fragmenstein_mode>  (336) 
expansion

>  <fragmenstein_error>  (336) 


$$$$
C35252-P122
     RDKit          3D

 33 36  0  0  0  0  0  0  0  0999 V2000
   -1.9652  -14.4548   17.3481 O   0  0  0  0  0  0  0  0  0  0  0  0
   -1.8150  -14.3493   18.5710 C   0  0  0  0  0  0  0  0  0  0  0  0
   -1.9532  -15.4128   19.9839 N   0  0  0  0  0  0  0  0  0  0  0  0
   -2.0939  -14.6275   21.5654 N   0  0  0  0  0  0  0  0  0  0  0  0
   -2.2111  -15.2838   23.6275 C   0  0  0  0  0  0  0  0  0  0  0  0
   -2.5231  -16.6286   25.2038 C   0  0  0  0  0  0  0  0  0  0  0  0
   -2.5870  -16.6525   26.8628 C   0  0  0  0  0  0  0  0  0  0  0  0
   -3.4414  -17.4140   27.8593 C   0  0  0  0  0  0  0  0  0  0  0  0
   -3.2746  -18.7985   27.8818 C   0  0  0  0  0  0  0  0  0  0  0  0
   -3.6385  -19.8495   28.6602 N   0  0  0  0  0  0  0  0  0  0  0  0
   -2.6918  -20.8024   28.4179 C   0  0  0  0  0  0  0  0  0  0  0  0
   -1.8351  -20.4094   27.4890 N   0  0  0  0  0  0  0  0  0  0  0  0
   -2.2929  -19.1927   26.9951 C   0  0  0  0  0  0  0  0  0  0  0  0
   -1.9452  -18.0862   25.7991 C   0  0  0  0  0  0  0  0  0  0  0  0
   -2.0901  -12.9280   20.6748 C   0  0  0  0  0  0  0  0  0  0  0  0
   -2.1075  -11.7674   21.1173 O   0  0  0  0  0  0  0  0  0  0  0  0
   -2.0023  -12.8916   19.1949 N   0  0  0  0  0  0  0  0  0  0  0  0
   -2.0229  -11.7553   18.3388 C   0  0  0  0  0  0  0  0  0  0  0  0
   -2.2230  -10.3988   18.5329 C   0  0  0  0  0  0  0  0  0  0  0  0
   -1.8055   -9.7775   17.3289 C   0  0  0  0  0  0  0  0  0  0  0  0
   -1.4750  -10.6681   16.3868 N   0  0  0  0  0  0  0  0  0  0  0  0
   -1.7459  -11.8495   16.9902 N   0  0  0  0  0  0  0  0  0  0  0  0
   -2.0638  -16.4201   19.9836 H   0  0  0  0  0  0  0  0  0  0  0  0
   -3.2762  -15.0694   23.7639 H   0  0  0  0  0  0  0  0  0  0  0  0
   -1.2899  -14.9023   24.1022 H   0  0  0  0  0  0  0  0  0  0  0  0
   -2.2251  -15.7141   27.3692 H   0  0  0  0  0  0  0  0  0  0  0  0
   -3.8626  -16.9104   28.7281 H   0  0  0  0  0  0  0  0  0  0  0  0
   -4.3372  -19.8539   29.3941 H   0  0  0  0  0  0  0  0  0  0  0  0
   -2.6530  -21.7328   28.9661 H   0  0  0  0  0  0  0  0  0  0  0  0
   -0.8582  -18.1985   25.8937 H   0  0  0  0  0  0  0  0  0  0  0  0
   -2.4696   -9.9079   19.4643 H   0  0  0  0  0  0  0  0  0  0  0  0
   -1.7113   -8.7198   17.1226 H   0  0  0  0  0  0  0  0  0  0  0  0
   -1.6325  -12.7133   16.4653 H   0  0  0  0  0  0  0  0  0  0  0  0
  1  2  2  0
  2  3  1  0
  3  4  1  0
  4  5  1  0
  5  6  1  0
  6  7  2  0
  7  8  1  0
  8  9  2  0
  9 10  1  0
 10 11  1  0
 11 12  2  0
 12 13  1  0
 13 14  2  0
  4 15  1  0
 15 16  2  0
 15 17  1  0
 17 18  1  0
 18 19  2  0
 19 20  1  0
 20 21  2  0
 21 22  1  0
 17  2  1  0
 22 18  1  0
 14  6  1  0
 13  9  1  0
  3 23  1  0
  5 24  1  0
  5 25  1  0
  7 26  1  0
  8 27  1  0
 10 28  1  0
 11 29  1  0
 14 30  1  0
 19 31  1  0
 20 32  1  0
 22 33  1  0
M  END
>  <Energy>  (337) 
808.12060845667099

>  <compound_id>  (337) 
35252

>  <target_id>  (337) 
1

>  <reference_id>  (337) 
122

>  <inspiration_ids>  (337) 
[94, 122]

>  <energy_score>  (337) 
741.3775429468399

>  <distance_score>  (337) 
13.662369224520306

>  <path>  (337) 
/opt/xchem-fragalysis-2/maxwin/BulkDock/SCRATCH/511015/C35252-P122/C35252-P122.minimised.mol

>  <scratch_subdir>  (337) 
/opt/xchem-fragalysis-2/maxwin/BulkDock/SCRATCH/511015/C35252-P122

>  <fragmenstein_runtime>  (337) 
15.179521560668945

>  <fragmenstein_outcome>  (337) 
too moved

>  <fragmenstein_mode>  (337) 
expansion

>  <fragmenstein_error>  (337) 


$$$$
C35253-P94
     RDKit          3D

 38 40  0  0  0  0  0  0  0  0999 V2000
   -1.0821  -20.7275   26.5732 C   0  0  0  0  0  0  0  0  0  0  0  0
   -2.2173  -21.2716   25.7800 C   0  0  0  0  0  0  0  0  0  0  0  0
   -3.3677  -21.6401   26.3026 N   0  0  0  0  0  0  0  0  0  0  0  0
   -4.1041  -22.1186   25.2611 C   0  0  0  0  0  0  0  0  0  0  0  0
   -5.3937  -22.6560   25.2840 C   0  0  0  0  0  0  0  0  0  0  0  0
   -5.9547  -23.1176   24.0915 C   0  0  0  0  0  0  0  0  0  0  0  0
   -5.2527  -23.0272   22.8983 C   0  0  0  0  0  0  0  0  0  0  0  0
   -3.9643  -22.4806   22.8562 C   0  0  0  0  0  0  0  0  0  0  0  0
   -3.4015  -22.0307   24.0563 C   0  0  0  0  0  0  0  0  0  0  0  0
   -2.1869  -21.4669   24.3948 N   0  0  0  0  0  0  0  0  0  0  0  0
   -0.9926  -21.2568   23.5672 C   0  0  0  0  0  0  0  0  0  0  0  0
   -1.0119  -20.7782   22.0534 C   0  0  0  0  0  0  0  0  0  0  0  0
    0.3014  -20.3036   21.4694 N   0  0  0  0  0  0  0  0  0  0  0  0
    0.5868  -19.3577   20.3496 C   0  0  0  0  0  0  0  0  0  0  0  0
   -0.1562  -18.6809   19.6901 O   0  0  0  0  0  0  0  0  0  0  0  0
    2.1452  -19.2864   20.0392 C   0  0  0  0  0  0  0  0  0  0  0  0
    2.7562  -17.9983   19.4018 C   0  0  0  0  0  0  0  0  0  0  0  0
    4.0853  -17.5918   19.2801 C   0  0  0  0  0  0  0  0  0  0  0  0
    4.0630  -16.3279   18.6546 C   0  0  0  0  0  0  0  0  0  0  0  0
    2.8210  -15.9481   18.3613 N   0  0  0  0  0  0  0  0  0  0  0  0
    2.0445  -16.9519   18.8519 N   0  0  0  0  0  0  0  0  0  0  0  0
   -1.3157  -20.7562   27.6424 H   0  0  0  0  0  0  0  0  0  0  0  0
   -0.8849  -19.6864   26.3012 H   0  0  0  0  0  0  0  0  0  0  0  0
   -0.1747  -21.3177   26.4132 H   0  0  0  0  0  0  0  0  0  0  0  0
   -5.9373  -22.7011   26.2189 H   0  0  0  0  0  0  0  0  0  0  0  0
   -6.9494  -23.5466   24.0895 H   0  0  0  0  0  0  0  0  0  0  0  0
   -5.7110  -23.3875   21.9795 H   0  0  0  0  0  0  0  0  0  0  0  0
   -3.4367  -22.4224   21.9115 H   0  0  0  0  0  0  0  0  0  0  0  0
   -0.4430  -22.2059   23.6122 H   0  0  0  0  0  0  0  0  0  0  0  0
   -0.3765  -20.5233   24.0982 H   0  0  0  0  0  0  0  0  0  0  0  0
   -1.7298  -19.9741   21.8998 H   0  0  0  0  0  0  0  0  0  0  0  0
   -1.3243  -21.6133   21.4186 H   0  0  0  0  0  0  0  0  0  0  0  0
    1.1611  -20.7679   21.7405 H   0  0  0  0  0  0  0  0  0  0  0  0
    2.6887  -19.4648   20.9751 H   0  0  0  0  0  0  0  0  0  0  0  0
    2.3630  -20.1211   19.3616 H   0  0  0  0  0  0  0  0  0  0  0  0
    4.9566  -18.1400   19.6097 H   0  0  0  0  0  0  0  0  0  0  0  0
    4.8923  -15.6846   18.3918 H   0  0  0  0  0  0  0  0  0  0  0  0
    1.0311  -16.8640   18.8005 H   0  0  0  0  0  0  0  0  0  0  0  0
  1  2  1  0
  2  3  2  0
  3  4  1  0
  4  5  2  0
  5  6  1  0
  6  7  2  0
  7  8  1  0
  8  9  2  0
  9 10  1  0
 10 11  1  0
 11 12  1  0
 12 13  1  0
 13 14  1  0
 14 15  2  0
 14 16  1  0
 16 17  1  0
 17 18  2  0
 18 19  1  0
 19 20  2  0
 20 21  1  0
 10  2  1  0
 21 17  1  0
  9  4  1  0
  1 22  1  0
  1 23  1  0
  1 24  1  0
  5 25  1  0
  6 26  1  0
  7 27  1  0
  8 28  1  0
 11 29  1  0
 11 30  1  0
 12 31  1  0
 12 32  1  0
 13 33  1  0
 16 34  1  0
 16 35  1  0
 18 36  1  0
 19 37  1  0
 21 38  1  0
M  END
>  <Energy>  (338) 
54.114960163728632

>  <compound_id>  (338) 
35253

>  <target_id>  (338) 
1

>  <reference_id>  (338) 
94

>  <inspiration_ids>  (338) 
[94, 122]

>  <energy_score>  (338) 
-0.42328770463780074

>  <distance_score>  (338) 
14.350165771452499

>  <path>  (338) 
/opt/xchem-fragalysis-2/maxwin/BulkDock/SCRATCH/511015/C35253-P94/C35253-P94.minimised.mol

>  <scratch_subdir>  (338) 
/opt/xchem-fragalysis-2/maxwin/BulkDock/SCRATCH/511015/C35253-P94

>  <fragmenstein_runtime>  (338) 
21.625362634658813

>  <fragmenstein_outcome>  (338) 
too moved

>  <fragmenstein_mode>  (338) 
expansion

>  <fragmenstein_error>  (338) 


$$$$
C35253-P122
     RDKit          3D

 38 40  0  0  0  0  0  0  0  0999 V2000
  -12.5175  -15.7908   21.8428 C   0  0  0  0  0  0  0  0  0  0  0  0
  -11.5732  -15.7849   22.9924 C   0  0  0  0  0  0  0  0  0  0  0  0
  -11.9433  -15.8382   24.2574 N   0  0  0  0  0  0  0  0  0  0  0  0
  -10.7931  -15.8538   24.9877 C   0  0  0  0  0  0  0  0  0  0  0  0
  -10.6378  -15.8724   26.3874 C   0  0  0  0  0  0  0  0  0  0  0  0
   -9.3742  -16.0704   26.9305 C   0  0  0  0  0  0  0  0  0  0  0  0
   -8.2849  -16.2017   26.0825 C   0  0  0  0  0  0  0  0  0  0  0  0
   -8.4095  -16.1012   24.6850 C   0  0  0  0  0  0  0  0  0  0  0  0
   -9.6821  -15.8953   24.1445 C   0  0  0  0  0  0  0  0  0  0  0  0
  -10.1918  -15.6967   22.8616 N   0  0  0  0  0  0  0  0  0  0  0  0
   -9.4614  -15.6600   21.5789 C   0  0  0  0  0  0  0  0  0  0  0  0
   -9.5849  -14.4066   20.5266 C   0  0  0  0  0  0  0  0  0  0  0  0
   -8.5015  -13.3840   20.1468 N   0  0  0  0  0  0  0  0  0  0  0  0
   -7.8037  -13.1243   18.8244 C   0  0  0  0  0  0  0  0  0  0  0  0
   -7.8737  -13.7117   17.7761 O   0  0  0  0  0  0  0  0  0  0  0  0
   -6.9292  -11.7772   18.8729 C   0  0  0  0  0  0  0  0  0  0  0  0
   -5.6332  -11.4963   18.0034 C   0  0  0  0  0  0  0  0  0  0  0  0
   -4.2954  -11.2350   18.3571 C   0  0  0  0  0  0  0  0  0  0  0  0
   -3.6264  -10.7962   17.2013 C   0  0  0  0  0  0  0  0  0  0  0  0
   -4.4447  -10.7971   16.1521 N   0  0  0  0  0  0  0  0  0  0  0  0
   -5.6303  -11.2328   16.6498 N   0  0  0  0  0  0  0  0  0  0  0  0
  -12.2535  -16.5660   21.1178 H   0  0  0  0  0  0  0  0  0  0  0  0
  -12.5237  -14.8195   21.3407 H   0  0  0  0  0  0  0  0  0  0  0  0
  -13.5357  -15.9940   22.1902 H   0  0  0  0  0  0  0  0  0  0  0  0
  -11.5031  -15.7592   27.0322 H   0  0  0  0  0  0  0  0  0  0  0  0
   -9.2423  -16.1258   28.0069 H   0  0  0  0  0  0  0  0  0  0  0  0
   -7.3087  -16.3995   26.5114 H   0  0  0  0  0  0  0  0  0  0  0  0
   -7.5304  -16.2190   24.0684 H   0  0  0  0  0  0  0  0  0  0  0  0
   -8.4382  -15.9588   21.7572 H   0  0  0  0  0  0  0  0  0  0  0  0
   -9.8830  -16.5195   21.0364 H   0  0  0  0  0  0  0  0  0  0  0  0
  -10.4265  -13.7861   20.8518 H   0  0  0  0  0  0  0  0  0  0  0  0
   -9.8644  -14.8524   19.5643 H   0  0  0  0  0  0  0  0  0  0  0  0
   -8.2723  -12.6392   20.7986 H   0  0  0  0  0  0  0  0  0  0  0  0
   -6.6375  -11.6445   19.9065 H   0  0  0  0  0  0  0  0  0  0  0  0
   -7.6341  -10.9677   18.6396 H   0  0  0  0  0  0  0  0  0  0  0  0
   -3.8578  -11.3229   19.3446 H   0  0  0  0  0  0  0  0  0  0  0  0
   -2.5963  -10.4824   17.0887 H   0  0  0  0  0  0  0  0  0  0  0  0
   -6.4132  -11.3052   16.0086 H   0  0  0  0  0  0  0  0  0  0  0  0
  1  2  1  0
  2  3  2  0
  3  4  1  0
  4  5  2  0
  5  6  1  0
  6  7  2  0
  7  8  1  0
  8  9  2  0
  9 10  1  0
 10 11  1  0
 11 12  1  0
 12 13  1  0
 13 14  1  0
 14 15  2  0
 14 16  1  0
 16 17  1  0
 17 18  2  0
 18 19  1  0
 19 20  2  0
 20 21  1  0
 10  2  1  0
 21 17  1  0
  9  4  1  0
  1 22  1  0
  1 23  1  0
  1 24  1  0
  5 25  1  0
  6 26  1  0
  7 27  1  0
  8 28  1  0
 11 29  1  0
 11 30  1  0
 12 31  1  0
 12 32  1  0
 13 33  1  0
 16 34  1  0
 16 35  1  0
 18 36  1  0
 19 37  1  0
 21 38  1  0
M  END
>  <Energy>  (339) 
78.320462970260309

>  <compound_id>  (339) 
35253

>  <target_id>  (339) 
1

>  <reference_id>  (339) 
122

>  <inspiration_ids>  (339) 
[94, 122]

>  <energy_score>  (339) 
23.782215101894053

>  <distance_score>  (339) 
15.260496848951467

>  <path>  (339) 
/opt/xchem-fragalysis-2/maxwin/BulkDock/SCRATCH/511015/C35253-P122/C35253-P122.minimised.mol

>  <scratch_subdir>  (339) 
/opt/xchem-fragalysis-2/maxwin/BulkDock/SCRATCH/511015/C35253-P122

>  <fragmenstein_runtime>  (339) 
25.044743299484253

>  <fragmenstein_outcome>  (339) 
too moved

>  <fragmenstein_mode>  (339) 
expansion

>  <fragmenstein_error>  (339) 


$$$$
C35254-P94
     RDKit          3D

 41 43  0  0  0  0  0  0  0  0999 V2000
   -2.4280  -16.5898   30.1693 C   0  0  0  0  0  0  0  0  0  0  0  0
   -2.0143  -16.7499   28.7109 C   0  0  0  0  0  0  0  0  0  0  0  0
   -2.7991  -17.8142   28.0230 C   0  0  0  0  0  0  0  0  0  0  0  0
   -3.0082  -18.9871   28.5943 N   0  0  0  0  0  0  0  0  0  0  0  0
   -3.6380  -19.7650   27.6821 C   0  0  0  0  0  0  0  0  0  0  0  0
   -3.8905  -21.1426   27.7218 C   0  0  0  0  0  0  0  0  0  0  0  0
   -4.5202  -21.7573   26.6410 C   0  0  0  0  0  0  0  0  0  0  0  0
   -4.8719  -21.0033   25.5284 C   0  0  0  0  0  0  0  0  0  0  0  0
   -4.6265  -19.6226   25.4657 C   0  0  0  0  0  0  0  0  0  0  0  0
   -3.9616  -19.0283   26.5529 C   0  0  0  0  0  0  0  0  0  0  0  0
   -3.2965  -17.7821   26.7257 N   0  0  0  0  0  0  0  0  0  0  0  0
   -2.8425  -17.0698   25.5000 C   0  0  0  0  0  0  0  0  0  0  0  0
   -2.2179  -15.4082   24.7888 C   0  0  0  0  0  0  0  0  0  0  0  0
   -0.8701  -14.2155   24.7065 N   0  0  0  0  0  0  0  0  0  0  0  0
    0.3067  -13.8996   23.5139 C   0  0  0  0  0  0  0  0  0  0  0  0
    0.2757  -14.4644   22.4736 O   0  0  0  0  0  0  0  0  0  0  0  0
    1.8947  -12.2971   23.6852 C   0  0  0  0  0  0  0  0  0  0  0  0
    3.2154  -10.8057   22.8378 C   0  0  0  0  0  0  0  0  0  0  0  0
    5.0041  -10.4223   22.9421 C   0  0  0  0  0  0  0  0  0  0  0  0
    5.3455   -8.8413   23.0939 C   0  0  0  0  0  0  0  0  0  0  0  0
    4.3032   -7.9694   22.8833 N   0  0  0  0  0  0  0  0  0  0  0  0
    2.9313   -8.8918   22.7771 N   0  0  0  0  0  0  0  0  0  0  0  0
   -1.8840  -15.7608   30.6314 H   0  0  0  0  0  0  0  0  0  0  0  0
   -2.2011  -17.4950   30.7437 H   0  0  0  0  0  0  0  0  0  0  0  0
   -3.5002  -16.3989   30.2705 H   0  0  0  0  0  0  0  0  0  0  0  0
   -0.9604  -17.0450   28.6999 H   0  0  0  0  0  0  0  0  0  0  0  0
   -2.0997  -15.7943   28.1969 H   0  0  0  0  0  0  0  0  0  0  0  0
   -3.5353  -21.7072   28.5743 H   0  0  0  0  0  0  0  0  0  0  0  0
   -4.6930  -22.8277   26.6499 H   0  0  0  0  0  0  0  0  0  0  0  0
   -5.3018  -21.5092   24.6655 H   0  0  0  0  0  0  0  0  0  0  0  0
   -4.8670  -19.0703   24.5642 H   0  0  0  0  0  0  0  0  0  0  0  0
   -2.1897  -17.8607   25.1967 H   0  0  0  0  0  0  0  0  0  0  0  0
   -3.7737  -17.1046   24.9121 H   0  0  0  0  0  0  0  0  0  0  0  0
   -2.8767  -15.3101   23.9306 H   0  0  0  0  0  0  0  0  0  0  0  0
   -2.4717  -14.8291   25.6607 H   0  0  0  0  0  0  0  0  0  0  0  0
   -0.7208  -13.5712   25.4747 H   0  0  0  0  0  0  0  0  0  0  0  0
    1.2856  -11.7416   22.9304 H   0  0  0  0  0  0  0  0  0  0  0  0
    2.7588  -12.9834   23.5797 H   0  0  0  0  0  0  0  0  0  0  0  0
    5.8197  -11.0322   23.3128 H   0  0  0  0  0  0  0  0  0  0  0  0
    6.3383   -8.4582   23.2950 H   0  0  0  0  0  0  0  0  0  0  0  0
    2.0105   -8.5475   22.5087 H   0  0  0  0  0  0  0  0  0  0  0  0
  1  2  1  0
  2  3  1  0
  3  4  2  0
  4  5  1  0
  5  6  2  0
  6  7  1  0
  7  8  2  0
  8  9  1  0
  9 10  2  0
 10 11  1  0
 11 12  1  0
 12 13  1  0
 13 14  1  0
 14 15  1  0
 15 16  2  0
 15 17  1  0
 17 18  1  0
 18 19  2  0
 19 20  1  0
 20 21  2  0
 21 22  1  0
 11  3  1  0
 22 18  1  0
 10  5  1  0
  1 23  1  0
  1 24  1  0
  1 25  1  0
  2 26  1  0
  2 27  1  0
  6 28  1  0
  7 29  1  0
  8 30  1  0
  9 31  1  0
 12 32  1  0
 12 33  1  0
 13 34  1  0
 13 35  1  0
 14 36  1  0
 17 37  1  0
 17 38  1  0
 19 39  1  0
 20 40  1  0
 22 41  1  0
M  END
>  <Energy>  (340) 
768.96325173918399

>  <compound_id>  (340) 
35254

>  <target_id>  (340) 
1

>  <reference_id>  (340) 
94

>  <inspiration_ids>  (340) 
[94, 122]

>  <energy_score>  (340) 
719.6740232269248

>  <distance_score>  (340) 
12.16233211090684

>  <path>  (340) 
/opt/xchem-fragalysis-2/maxwin/BulkDock/SCRATCH/511015/C35254-P94/C35254-P94.minimised.mol

>  <scratch_subdir>  (340) 
/opt/xchem-fragalysis-2/maxwin/BulkDock/SCRATCH/511015/C35254-P94

>  <fragmenstein_runtime>  (340) 
24.593347549438477

>  <fragmenstein_outcome>  (340) 
too moved

>  <fragmenstein_mode>  (340) 
expansion

>  <fragmenstein_error>  (340) 


$$$$
C35254-P122
     RDKit          3D

 41 43  0  0  0  0  0  0  0  0999 V2000
   -1.1383  -18.0104   29.7077 C   0  0  0  0  0  0  0  0  0  0  0  0
   -1.2156  -16.9220   30.7690 C   0  0  0  0  0  0  0  0  0  0  0  0
   -2.4681  -17.0122   31.5842 C   0  0  0  0  0  0  0  0  0  0  0  0
   -3.0770  -18.1412   31.8917 N   0  0  0  0  0  0  0  0  0  0  0  0
   -4.2331  -17.7863   32.5245 C   0  0  0  0  0  0  0  0  0  0  0  0
   -5.2517  -18.6058   33.0225 C   0  0  0  0  0  0  0  0  0  0  0  0
   -6.3728  -18.0052   33.6033 C   0  0  0  0  0  0  0  0  0  0  0  0
   -6.4938  -16.6213   33.6551 C   0  0  0  0  0  0  0  0  0  0  0  0
   -5.4727  -15.7886   33.1788 C   0  0  0  0  0  0  0  0  0  0  0  0
   -4.3305  -16.3981   32.6366 C   0  0  0  0  0  0  0  0  0  0  0  0
   -3.1321  -15.9162   32.1191 N   0  0  0  0  0  0  0  0  0  0  0  0
   -2.7413  -14.5054   31.9739 C   0  0  0  0  0  0  0  0  0  0  0  0
   -1.3264  -14.0218   32.5308 C   0  0  0  0  0  0  0  0  0  0  0  0
   -0.8632  -12.6367   32.1484 N   0  0  0  0  0  0  0  0  0  0  0  0
    0.5033  -12.1051   31.8808 C   0  0  0  0  0  0  0  0  0  0  0  0
    1.5811  -12.6308   31.9816 O   0  0  0  0  0  0  0  0  0  0  0  0
    0.4507  -10.6046   31.3643 C   0  0  0  0  0  0  0  0  0  0  0  0
    1.6375  -10.0300   30.5225 C   0  0  0  0  0  0  0  0  0  0  0  0
    1.9957   -8.7091   30.2676 C   0  0  0  0  0  0  0  0  0  0  0  0
    3.1698   -8.7575   29.4934 C   0  0  0  0  0  0  0  0  0  0  0  0
    3.4725  -10.0066   29.1343 N   0  0  0  0  0  0  0  0  0  0  0  0
    2.6225  -10.7572   29.8918 N   0  0  0  0  0  0  0  0  0  0  0  0
   -1.1332  -19.0086   30.1585 H   0  0  0  0  0  0  0  0  0  0  0  0
   -0.2208  -17.9017   29.1207 H   0  0  0  0  0  0  0  0  0  0  0  0
   -1.9903  -17.9534   29.0214 H   0  0  0  0  0  0  0  0  0  0  0  0
   -0.3500  -17.0041   31.4355 H   0  0  0  0  0  0  0  0  0  0  0  0
   -1.1547  -15.9558   30.2608 H   0  0  0  0  0  0  0  0  0  0  0  0
   -5.1864  -19.6838   32.9244 H   0  0  0  0  0  0  0  0  0  0  0  0
   -7.1765  -18.6350   33.9753 H   0  0  0  0  0  0  0  0  0  0  0  0
   -7.3913  -16.1817   34.0839 H   0  0  0  0  0  0  0  0  0  0  0  0
   -5.5706  -14.7112   33.2455 H   0  0  0  0  0  0  0  0  0  0  0  0
   -3.5143  -13.8941   32.4513 H   0  0  0  0  0  0  0  0  0  0  0  0
   -2.7997  -14.2961   30.9006 H   0  0  0  0  0  0  0  0  0  0  0  0
   -1.3582  -14.0377   33.6257 H   0  0  0  0  0  0  0  0  0  0  0  0
   -0.5301  -14.7053   32.2260 H   0  0  0  0  0  0  0  0  0  0  0  0
   -1.5489  -11.9431   31.8771 H   0  0  0  0  0  0  0  0  0  0  0  0
    0.3577   -9.9813   32.2629 H   0  0  0  0  0  0  0  0  0  0  0  0
   -0.4581  -10.4594   30.7697 H   0  0  0  0  0  0  0  0  0  0  0  0
    1.4985   -7.8275   30.6488 H   0  0  0  0  0  0  0  0  0  0  0  0
    3.7884   -7.9358   29.1559 H   0  0  0  0  0  0  0  0  0  0  0  0
    2.7787  -11.7594   29.9586 H   0  0  0  0  0  0  0  0  0  0  0  0
  1  2  1  0
  2  3  1  0
  3  4  2  0
  4  5  1  0
  5  6  2  0
  6  7  1  0
  7  8  2  0
  8  9  1  0
  9 10  2  0
 10 11  1  0
 11 12  1  0
 12 13  1  0
 13 14  1  0
 14 15  1  0
 15 16  2  0
 15 17  1  0
 17 18  1  0
 18 19  2  0
 19 20  1  0
 20 21  2  0
 21 22  1  0
 11  3  1  0
 22 18  1  0
 10  5  1  0
  1 23  1  0
  1 24  1  0
  1 25  1  0
  2 26  1  0
  2 27  1  0
  6 28  1  0
  7 29  1  0
  8 30  1  0
  9 31  1  0
 12 32  1  0
 12 33  1  0
 13 34  1  0
 13 35  1  0
 14 36  1  0
 17 37  1  0
 17 38  1  0
 19 39  1  0
 20 40  1  0
 22 41  1  0
M  END
>  <Energy>  (341) 
52.90074887004878

>  <compound_id>  (341) 
35254

>  <target_id>  (341) 
1

>  <reference_id>  (341) 
122

>  <inspiration_ids>  (341) 
[94, 122]

>  <energy_score>  (341) 
3.611520357794575

>  <distance_score>  (341) 
14.619459676643551

>  <path>  (341) 
/opt/xchem-fragalysis-2/maxwin/BulkDock/SCRATCH/511015/C35254-P122/C35254-P122.minimised.mol

>  <scratch_subdir>  (341) 
/opt/xchem-fragalysis-2/maxwin/BulkDock/SCRATCH/511015/C35254-P122

>  <fragmenstein_runtime>  (341) 
26.57816481590271

>  <fragmenstein_outcome>  (341) 
too moved

>  <fragmenstein_mode>  (341) 
expansion

>  <fragmenstein_error>  (341) 


$$$$
C35255-P94
     RDKit          3D

 35 39  0  0  0  0  0  0  0  0999 V2000
   -4.5425  -18.7009   18.7052 C   0  0  0  0  0  0  0  0  0  0  0  0
   -5.6367  -19.2797   19.4022 C   0  0  0  0  0  0  0  0  0  0  0  0
   -5.1968  -20.4951   19.9238 C   0  0  0  0  0  0  0  0  0  0  0  0
   -5.8210  -21.4673   20.9033 C   0  0  0  0  0  0  0  0  0  0  0  0
   -6.9028  -21.2957   21.7009 N   0  0  0  0  0  0  0  0  0  0  0  0
   -6.8852  -22.3676   22.6653 C   0  0  0  0  0  0  0  0  0  0  0  0
   -7.8627  -22.5110   23.8794 C   0  0  0  0  0  0  0  0  0  0  0  0
   -9.6098  -21.9072   23.4807 C   0  0  0  0  0  0  0  0  0  0  0  0
  -10.5996  -20.7527   24.6475 C   0  0  0  0  0  0  0  0  0  0  0  0
   -9.9931  -20.8734   26.5998 C   0  0  0  0  0  0  0  0  0  0  0  0
  -10.7732  -21.8515   27.6410 N   0  0  0  0  0  0  0  0  0  0  0  0
   -9.9542  -22.8764   28.1176 C   0  0  0  0  0  0  0  0  0  0  0  0
   -8.6095  -22.7001   28.0331 N   0  0  0  0  0  0  0  0  0  0  0  0
   -8.0636  -21.4139   27.0576 C   0  0  0  0  0  0  0  0  0  0  0  0
   -7.1805  -22.4641   25.6885 C   0  0  0  0  0  0  0  0  0  0  0  0
   -5.8917  -23.2223   22.4132 N   0  0  0  0  0  0  0  0  0  0  0  0
   -5.2959  -22.6920   21.3092 N   0  0  0  0  0  0  0  0  0  0  0  0
   -4.2294  -23.4507   20.5995 C   0  0  0  0  0  0  0  0  0  0  0  0
   -3.6382  -24.7290   21.1570 C   0  0  0  0  0  0  0  0  0  0  0  0
   -2.8034  -23.4864   21.0969 C   0  0  0  0  0  0  0  0  0  0  0  0
   -3.8763  -20.5405   19.4803 N   0  0  0  0  0  0  0  0  0  0  0  0
   -3.4484  -19.4548   18.7874 N   0  0  0  0  0  0  0  0  0  0  0  0
   -4.5043  -17.7641   18.1660 H   0  0  0  0  0  0  0  0  0  0  0  0
   -6.6185  -18.8530   19.5528 H   0  0  0  0  0  0  0  0  0  0  0  0
   -9.9087  -21.8978   22.4284 H   0  0  0  0  0  0  0  0  0  0  0  0
  -11.7008  -20.8933   24.5462 H   0  0  0  0  0  0  0  0  0  0  0  0
  -11.7600  -21.9601   27.4774 H   0  0  0  0  0  0  0  0  0  0  0  0
  -10.4205  -23.7549   28.5489 H   0  0  0  0  0  0  0  0  0  0  0  0
   -6.0945  -22.5124   25.8252 H   0  0  0  0  0  0  0  0  0  0  0  0
   -4.3961  -23.4635   19.5259 H   0  0  0  0  0  0  0  0  0  0  0  0
   -3.9659  -25.0726   22.1330 H   0  0  0  0  0  0  0  0  0  0  0  0
   -3.4164  -25.5304   20.4619 H   0  0  0  0  0  0  0  0  0  0  0  0
   -2.5708  -22.9994   22.0388 H   0  0  0  0  0  0  0  0  0  0  0  0
   -1.9991  -23.4615   20.3709 H   0  0  0  0  0  0  0  0  0  0  0  0
   -3.1874  -21.2493   19.6946 H   0  0  0  0  0  0  0  0  0  0  0  0
  1  2  1  0
  2  3  2  0
  3  4  1  0
  4  5  2  0
  5  6  1  0
  6  7  1  0
  7  8  2  0
  8  9  1  0
  9 10  2  0
 10 11  1  0
 11 12  1  0
 12 13  2  0
 13 14  1  0
 14 15  2  0
  6 16  2  0
 16 17  1  0
 17 18  1  0
 18 19  1  0
 19 20  1  0
  3 21  1  0
 21 22  1  0
 22  1  2  0
 17  4  1  0
 20 18  1  0
 15  7  1  0
 14 10  1  0
  1 23  1  0
  2 24  1  0
  8 25  1  0
  9 26  1  0
 11 27  1  0
 12 28  1  0
 15 29  1  0
 18 30  1  0
 19 31  1  0
 19 32  1  0
 20 33  1  0
 20 34  1  0
 21 35  1  0
M  END
>  <Energy>  (342) 
758.1178426050343

>  <compound_id>  (342) 
35255

>  <target_id>  (342) 
1

>  <reference_id>  (342) 
94

>  <inspiration_ids>  (342) 
[94, 122]

>  <energy_score>  (342) 
686.9418748325456

>  <distance_score>  (342) 
16.110257211499754

>  <path>  (342) 
/opt/xchem-fragalysis-2/maxwin/BulkDock/SCRATCH/511015/C35255-P94/C35255-P94.minimised.mol

>  <scratch_subdir>  (342) 
/opt/xchem-fragalysis-2/maxwin/BulkDock/SCRATCH/511015/C35255-P94

>  <fragmenstein_runtime>  (342) 
21.005136489868164

>  <fragmenstein_outcome>  (342) 
too moved

>  <fragmenstein_mode>  (342) 
expansion

>  <fragmenstein_error>  (342) 


$$$$
C35255-P122
     RDKit          3D

 35 39  0  0  0  0  0  0  0  0999 V2000
    3.3914  -14.0808   17.0598 C   0  0  0  0  0  0  0  0  0  0  0  0
    2.2553  -14.3742   17.8654 C   0  0  0  0  0  0  0  0  0  0  0  0
    1.0321  -13.9087   17.2324 C   0  0  0  0  0  0  0  0  0  0  0  0
   -0.8506  -13.8088   17.4358 C   0  0  0  0  0  0  0  0  0  0  0  0
   -1.7668  -14.9175   17.2566 N   0  0  0  0  0  0  0  0  0  0  0  0
   -1.9482  -15.8063   18.6863 C   0  0  0  0  0  0  0  0  0  0  0  0
   -2.6683  -17.3819   18.9137 C   0  0  0  0  0  0  0  0  0  0  0  0
   -2.5151  -18.6334   18.2413 C   0  0  0  0  0  0  0  0  0  0  0  0
   -3.4038  -19.7845   18.2864 C   0  0  0  0  0  0  0  0  0  0  0  0
   -4.6005  -19.6408   18.9730 C   0  0  0  0  0  0  0  0  0  0  0  0
   -5.6455  -20.4615   19.3194 N   0  0  0  0  0  0  0  0  0  0  0  0
   -6.5032  -19.7446   20.1124 C   0  0  0  0  0  0  0  0  0  0  0  0
   -6.0720  -18.5145   20.2885 N   0  0  0  0  0  0  0  0  0  0  0  0
   -4.8733  -18.4450   19.5954 C   0  0  0  0  0  0  0  0  0  0  0  0
   -3.7854  -17.4871   19.6405 C   0  0  0  0  0  0  0  0  0  0  0  0
   -1.8181  -14.7999   19.5030 N   0  0  0  0  0  0  0  0  0  0  0  0
   -1.8022  -13.4650   18.3656 N   0  0  0  0  0  0  0  0  0  0  0  0
   -1.9417  -12.0081   18.7117 C   0  0  0  0  0  0  0  0  0  0  0  0
   -2.5319  -11.3231   19.8935 C   0  0  0  0  0  0  0  0  0  0  0  0
   -3.1264  -11.1551   18.5394 C   0  0  0  0  0  0  0  0  0  0  0  0
    1.6838  -14.0673   15.9079 N   0  0  0  0  0  0  0  0  0  0  0  0
    2.9827  -13.6937   15.8672 N   0  0  0  0  0  0  0  0  0  0  0  0
    4.4441  -14.1391   17.3074 H   0  0  0  0  0  0  0  0  0  0  0  0
    2.4319  -14.7618   18.8447 H   0  0  0  0  0  0  0  0  0  0  0  0
   -1.6404  -18.8049   17.6030 H   0  0  0  0  0  0  0  0  0  0  0  0
   -3.1327  -20.7000   17.7705 H   0  0  0  0  0  0  0  0  0  0  0  0
   -5.7390  -21.4363   19.0772 H   0  0  0  0  0  0  0  0  0  0  0  0
   -7.4013  -20.1725   20.5347 H   0  0  0  0  0  0  0  0  0  0  0  0
   -3.6363  -16.8381   20.5101 H   0  0  0  0  0  0  0  0  0  0  0  0
   -1.1823  -11.4952   18.1866 H   0  0  0  0  0  0  0  0  0  0  0  0
   -3.1624  -11.8527   20.5619 H   0  0  0  0  0  0  0  0  0  0  0  0
   -1.9985  -10.4864   20.3265 H   0  0  0  0  0  0  0  0  0  0  0  0
   -4.0820  -11.6133   18.3761 H   0  0  0  0  0  0  0  0  0  0  0  0
   -2.9638  -10.2120   18.0291 H   0  0  0  0  0  0  0  0  0  0  0  0
    1.1386  -14.0473   15.0522 H   0  0  0  0  0  0  0  0  0  0  0  0
  1  2  1  0
  2  3  2  0
  3  4  1  0
  4  5  2  0
  5  6  1  0
  6  7  1  0
  7  8  2  0
  8  9  1  0
  9 10  2  0
 10 11  1  0
 11 12  1  0
 12 13  2  0
 13 14  1  0
 14 15  2  0
  6 16  2  0
 16 17  1  0
 17 18  1  0
 18 19  1  0
 19 20  1  0
  3 21  1  0
 21 22  1  0
 22  1  2  0
 17  4  1  0
 20 18  1  0
 15  7  1  0
 14 10  1  0
  1 23  1  0
  2 24  1  0
  8 25  1  0
  9 26  1  0
 11 27  1  0
 12 28  1  0
 15 29  1  0
 18 30  1  0
 19 31  1  0
 19 32  1  0
 20 33  1  0
 20 34  1  0
 21 35  1  0
M  END
>  <Energy>  (343) 
358.0774535083969

>  <compound_id>  (343) 
35255

>  <target_id>  (343) 
1

>  <reference_id>  (343) 
122

>  <inspiration_ids>  (343) 
[94, 122]

>  <energy_score>  (343) 
286.9014857359088

>  <distance_score>  (343) 
15.431792292281576

>  <path>  (343) 
/opt/xchem-fragalysis-2/maxwin/BulkDock/SCRATCH/511015/C35255-P122/C35255-P122.minimised.mol

>  <scratch_subdir>  (343) 
/opt/xchem-fragalysis-2/maxwin/BulkDock/SCRATCH/511015/C35255-P122

>  <fragmenstein_runtime>  (343) 
17.418226718902588

>  <fragmenstein_outcome>  (343) 
too moved

>  <fragmenstein_mode>  (343) 
expansion

>  <fragmenstein_error>  (343) 


$$$$
C35256-P94
     RDKit          3D

 41 43  0  0  0  0  0  0  0  0999 V2000
   -2.2895  -19.7128   18.9996 C   0  0  0  0  0  0  0  0  0  0  0  0
   -3.4688  -18.7002   18.9391 C   0  0  0  0  0  0  0  0  0  0  0  0
   -3.0321  -17.7255   17.8638 N   0  0  0  0  0  0  0  0  0  0  0  0
   -1.8693  -16.7798   17.8166 C   0  0  0  0  0  0  0  0  0  0  0  0
   -1.0477  -16.5086   18.6545 O   0  0  0  0  0  0  0  0  0  0  0  0
   -1.5945  -16.0179   16.4428 C   0  0  0  0  0  0  0  0  0  0  0  0
   -1.0749  -14.4930   16.5592 C   0  0  0  0  0  0  0  0  0  0  0  0
    0.3519  -14.0060   16.2719 C   0  0  0  0  0  0  0  0  0  0  0  0
    0.7805  -12.8424   15.6341 C   0  0  0  0  0  0  0  0  0  0  0  0
    2.1767  -12.7835   15.8074 C   0  0  0  0  0  0  0  0  0  0  0  0
    2.6271  -13.8343   16.4889 N   0  0  0  0  0  0  0  0  0  0  0  0
    1.5110  -14.5410   16.7835 N   0  0  0  0  0  0  0  0  0  0  0  0
   -4.8367  -19.5990   19.1646 C   0  0  0  0  0  0  0  0  0  0  0  0
   -4.7868  -20.9132   18.9016 N   0  0  0  0  0  0  0  0  0  0  0  0
   -5.6070  -21.5875   19.7851 C   0  0  0  0  0  0  0  0  0  0  0  0
   -5.7396  -22.9640   20.0373 C   0  0  0  0  0  0  0  0  0  0  0  0
   -6.6468  -23.4051   21.0106 C   0  0  0  0  0  0  0  0  0  0  0  0
   -7.4462  -22.4985   21.6983 C   0  0  0  0  0  0  0  0  0  0  0  0
   -7.3398  -21.1297   21.4403 C   0  0  0  0  0  0  0  0  0  0  0  0
   -6.3759  -20.7011   20.5048 C   0  0  0  0  0  0  0  0  0  0  0  0
   -5.9340  -19.4448   20.0849 N   0  0  0  0  0  0  0  0  0  0  0  0
   -6.5675  -18.2560   20.6420 C   0  0  0  0  0  0  0  0  0  0  0  0
   -7.0660  -18.4383   21.9057 F   0  0  0  0  0  0  0  0  0  0  0  0
   -7.6189  -17.8706   19.8665 F   0  0  0  0  0  0  0  0  0  0  0  0
   -2.1916  -20.2393   18.0422 H   0  0  0  0  0  0  0  0  0  0  0  0
   -2.4146  -20.4729   19.7772 H   0  0  0  0  0  0  0  0  0  0  0  0
   -1.3377  -19.2048   19.1905 H   0  0  0  0  0  0  0  0  0  0  0  0
   -3.4004  -18.0368   19.7906 H   0  0  0  0  0  0  0  0  0  0  0  0
   -3.4647  -17.7672   16.9489 H   0  0  0  0  0  0  0  0  0  0  0  0
   -0.8728  -16.6111   15.8717 H   0  0  0  0  0  0  0  0  0  0  0  0
   -2.5433  -16.0067   15.8937 H   0  0  0  0  0  0  0  0  0  0  0  0
   -1.3581  -14.1138   17.5428 H   0  0  0  0  0  0  0  0  0  0  0  0
   -1.7065  -13.9367   15.8503 H   0  0  0  0  0  0  0  0  0  0  0  0
    0.1525  -12.1129   15.1426 H   0  0  0  0  0  0  0  0  0  0  0  0
    2.8747  -12.0286   15.4704 H   0  0  0  0  0  0  0  0  0  0  0  0
    1.6095  -15.3637   17.3709 H   0  0  0  0  0  0  0  0  0  0  0  0
   -5.1281  -23.6706   19.4863 H   0  0  0  0  0  0  0  0  0  0  0  0
   -6.7223  -24.4693   21.2042 H   0  0  0  0  0  0  0  0  0  0  0  0
   -8.1588  -22.8529   22.4384 H   0  0  0  0  0  0  0  0  0  0  0  0
   -7.9750  -20.4268   21.9628 H   0  0  0  0  0  0  0  0  0  0  0  0
   -5.8445  -17.4555   20.6389 H   0  0  0  0  0  0  0  0  0  0  0  0
  1  2  1  0
  2  3  1  0
  3  4  1  0
  4  5  2  0
  4  6  1  0
  6  7  1  0
  7  8  1  0
  8  9  2  0
  9 10  1  0
 10 11  2  0
 11 12  1  0
  2 13  1  0
 13 14  2  0
 14 15  1  0
 15 16  2  0
 16 17  1  0
 17 18  2  0
 18 19  1  0
 19 20  2  0
 20 21  1  0
 21 22  1  0
 22 23  1  0
 22 24  1  0
 12  8  1  0
 21 13  1  0
 20 15  1  0
  1 25  1  0
  1 26  1  0
  1 27  1  0
  2 28  1  0
  3 29  1  0
  6 30  1  0
  6 31  1  0
  7 32  1  0
  7 33  1  0
  9 34  1  0
 10 35  1  0
 12 36  1  0
 16 37  1  0
 17 38  1  0
 18 39  1  0
 19 40  1  0
 22 41  1  0
M  END
>  <Energy>  (344) 
82.072109990987329

>  <compound_id>  (344) 
35256

>  <target_id>  (344) 
1

>  <reference_id>  (344) 
94

>  <inspiration_ids>  (344) 
[94, 122]

>  <energy_score>  (344) 
54.990769577346214

>  <distance_score>  (344) 
14.283164769860427

>  <path>  (344) 
/opt/xchem-fragalysis-2/maxwin/BulkDock/SCRATCH/511015/C35256-P94/C35256-P94.minimised.mol

>  <scratch_subdir>  (344) 
/opt/xchem-fragalysis-2/maxwin/BulkDock/SCRATCH/511015/C35256-P94

>  <fragmenstein_runtime>  (344) 
48.66995692253113

>  <fragmenstein_outcome>  (344) 
too moved

>  <fragmenstein_mode>  (344) 
expansion

>  <fragmenstein_error>  (344) 


$$$$
C35256-P122
     RDKit          3D

 41 43  0  0  0  0  0  0  0  0999 V2000
   -5.3666  -19.6051   17.4384 C   0  0  0  0  0  0  0  0  0  0  0  0
   -4.8521  -19.1408   18.8064 C   0  0  0  0  0  0  0  0  0  0  0  0
   -3.4383  -18.5434   18.6298 N   0  0  0  0  0  0  0  0  0  0  0  0
   -2.9218  -17.5320   17.6643 C   0  0  0  0  0  0  0  0  0  0  0  0
   -3.4635  -16.9913   16.7329 O   0  0  0  0  0  0  0  0  0  0  0  0
   -1.3824  -16.9995   17.9135 C   0  0  0  0  0  0  0  0  0  0  0  0
   -0.9218  -15.8265   16.8701 C   0  0  0  0  0  0  0  0  0  0  0  0
    0.4428  -15.1104   16.8986 C   0  0  0  0  0  0  0  0  0  0  0  0
    1.7646  -15.5261   16.9011 C   0  0  0  0  0  0  0  0  0  0  0  0
    2.5547  -14.3565   16.7924 C   0  0  0  0  0  0  0  0  0  0  0  0
    1.8054  -13.2598   16.6955 N   0  0  0  0  0  0  0  0  0  0  0  0
    0.5439  -13.7366   16.7236 N   0  0  0  0  0  0  0  0  0  0  0  0
   -5.1280  -20.3181   19.8335 C   0  0  0  0  0  0  0  0  0  0  0  0
   -4.3678  -21.3948   20.0163 N   0  0  0  0  0  0  0  0  0  0  0  0
   -4.9786  -22.1753   20.9897 C   0  0  0  0  0  0  0  0  0  0  0  0
   -4.4911  -23.3001   21.6820 C   0  0  0  0  0  0  0  0  0  0  0  0
   -5.2377  -23.8333   22.7394 C   0  0  0  0  0  0  0  0  0  0  0  0
   -6.4878  -23.3117   23.0462 C   0  0  0  0  0  0  0  0  0  0  0  0
   -7.0437  -22.2781   22.2917 C   0  0  0  0  0  0  0  0  0  0  0  0
   -6.2277  -21.6719   21.3260 C   0  0  0  0  0  0  0  0  0  0  0  0
   -6.2894  -20.4529   20.6560 N   0  0  0  0  0  0  0  0  0  0  0  0
   -7.1602  -19.3619   21.0954 C   0  0  0  0  0  0  0  0  0  0  0  0
   -8.1271  -19.7236   21.9967 F   0  0  0  0  0  0  0  0  0  0  0  0
   -7.8186  -18.8315   20.0269 F   0  0  0  0  0  0  0  0  0  0  0  0
   -5.3729  -18.7848   16.7144 H   0  0  0  0  0  0  0  0  0  0  0  0
   -6.3903  -19.9897   17.5080 H   0  0  0  0  0  0  0  0  0  0  0  0
   -4.7337  -20.4027   17.0330 H   0  0  0  0  0  0  0  0  0  0  0  0
   -5.4571  -18.2838   19.1240 H   0  0  0  0  0  0  0  0  0  0  0  0
   -2.6820  -18.8414   19.2361 H   0  0  0  0  0  0  0  0  0  0  0  0
   -1.3256  -16.6114   18.9355 H   0  0  0  0  0  0  0  0  0  0  0  0
   -0.7093  -17.8564   17.8117 H   0  0  0  0  0  0  0  0  0  0  0  0
   -1.6920  -15.0469   16.9173 H   0  0  0  0  0  0  0  0  0  0  0  0
   -1.0123  -16.2637   15.8658 H   0  0  0  0  0  0  0  0  0  0  0  0
    2.1155  -16.5469   16.9566 H   0  0  0  0  0  0  0  0  0  0  0  0
    3.6332  -14.2690   16.7698 H   0  0  0  0  0  0  0  0  0  0  0  0
   -0.2168  -13.0742   16.6155 H   0  0  0  0  0  0  0  0  0  0  0  0
   -3.5097  -23.6911   21.4384 H   0  0  0  0  0  0  0  0  0  0  0  0
   -4.8313  -24.6535   23.3232 H   0  0  0  0  0  0  0  0  0  0  0  0
   -7.0406  -23.7145   23.8877 H   0  0  0  0  0  0  0  0  0  0  0  0
   -8.0398  -21.9198   22.5034 H   0  0  0  0  0  0  0  0  0  0  0  0
   -6.5436  -18.5805   21.5446 H   0  0  0  0  0  0  0  0  0  0  0  0
  1  2  1  0
  2  3  1  0
  3  4  1  0
  4  5  2  0
  4  6  1  0
  6  7  1  0
  7  8  1  0
  8  9  2  0
  9 10  1  0
 10 11  2  0
 11 12  1  0
  2 13  1  0
 13 14  2  0
 14 15  1  0
 15 16  2  0
 16 17  1  0
 17 18  2  0
 18 19  1  0
 19 20  2  0
 20 21  1  0
 21 22  1  0
 22 23  1  0
 22 24  1  0
 12  8  1  0
 21 13  1  0
 20 15  1  0
  1 25  1  0
  1 26  1  0
  1 27  1  0
  2 28  1  0
  3 29  1  0
  6 30  1  0
  6 31  1  0
  7 32  1  0
  7 33  1  0
  9 34  1  0
 10 35  1  0
 12 36  1  0
 16 37  1  0
 17 38  1  0
 18 39  1  0
 19 40  1  0
 22 41  1  0
M  END
>  <Energy>  (345) 
50.387688471894037

>  <compound_id>  (345) 
35256

>  <target_id>  (345) 
1

>  <reference_id>  (345) 
122

>  <inspiration_ids>  (345) 
[94, 122]

>  <energy_score>  (345) 
23.30634805825059

>  <distance_score>  (345) 
14.084095772046691

>  <path>  (345) 
/opt/xchem-fragalysis-2/maxwin/BulkDock/SCRATCH/511015/C35256-P122/C35256-P122.minimised.mol

>  <scratch_subdir>  (345) 
/opt/xchem-fragalysis-2/maxwin/BulkDock/SCRATCH/511015/C35256-P122

>  <fragmenstein_runtime>  (345) 
41.11206889152527

>  <fragmenstein_outcome>  (345) 
too moved

>  <fragmenstein_mode>  (345) 
expansion

>  <fragmenstein_error>  (345) 


$$$$
C35257-P94
     RDKit          3D

 34 36  0  0  0  0  0  0  0  0999 V2000
    3.5292  -14.8977   23.3303 O   0  0  0  0  0  0  0  0  0  0  0  0
    2.7909  -13.9160   23.4585 C   0  0  0  0  0  0  0  0  0  0  0  0
    3.4204  -12.4776   23.2835 C   0  0  0  0  0  0  0  0  0  0  0  0
    4.7658  -11.6682   22.8179 C   0  0  0  0  0  0  0  0  0  0  0  0
    6.0923  -12.0171   22.6161 C   0  0  0  0  0  0  0  0  0  0  0  0
    6.7362  -10.8425   22.1666 C   0  0  0  0  0  0  0  0  0  0  0  0
    5.8988   -9.8083   22.0834 N   0  0  0  0  0  0  0  0  0  0  0  0
    4.7120  -10.3320   22.4552 N   0  0  0  0  0  0  0  0  0  0  0  0
    1.0634  -14.0545   23.7411 O   0  0  0  0  0  0  0  0  0  0  0  0
   -0.7855  -14.4332   23.4359 C   0  0  0  0  0  0  0  0  0  0  0  0
   -2.4929  -15.3154   23.9860 C   0  0  0  0  0  0  0  0  0  0  0  0
   -3.7201  -14.7302   23.6748 N   0  0  0  0  0  0  0  0  0  0  0  0
   -5.1250  -13.7203   23.5504 C   0  0  0  0  0  0  0  0  0  0  0  0
   -6.0476  -12.5925   23.9904 C   0  0  0  0  0  0  0  0  0  0  0  0
   -7.3383  -12.7367   24.5626 C   0  0  0  0  0  0  0  0  0  0  0  0
   -7.8812  -13.9808   24.6518 C   0  0  0  0  0  0  0  0  0  0  0  0
   -7.0851  -15.0059   24.1085 C   0  0  0  0  0  0  0  0  0  0  0  0
   -5.3517  -15.0480   23.6739 C   0  0  0  0  0  0  0  0  0  0  0  0
   -3.8158  -15.7074   23.1056 N   0  0  0  0  0  0  0  0  0  0  0  0
   -3.9277  -16.4509   21.5401 C   0  0  0  0  0  0  0  0  0  0  0  0
   -5.1222  -17.0183   21.1600 F   0  0  0  0  0  0  0  0  0  0  0  0
   -3.2396  -15.6494   20.6090 F   0  0  0  0  0  0  0  0  0  0  0  0
    3.5407  -12.8122   22.2359 H   0  0  0  0  0  0  0  0  0  0  0  0
    4.1038  -12.8109   24.0752 H   0  0  0  0  0  0  0  0  0  0  0  0
    6.5279  -12.9954   22.7638 H   0  0  0  0  0  0  0  0  0  0  0  0
    7.7759  -10.7062   21.8990 H   0  0  0  0  0  0  0  0  0  0  0  0
    3.8779   -9.7539   22.3710 H   0  0  0  0  0  0  0  0  0  0  0  0
   -0.6859  -14.8771   22.4507 H   0  0  0  0  0  0  0  0  0  0  0  0
   -0.7344  -14.6158   24.4773 H   0  0  0  0  0  0  0  0  0  0  0  0
   -5.7262  -11.5635   23.8766 H   0  0  0  0  0  0  0  0  0  0  0  0
   -7.8940  -11.8560   24.8698 H   0  0  0  0  0  0  0  0  0  0  0  0
   -8.9026  -14.1542   24.9664 H   0  0  0  0  0  0  0  0  0  0  0  0
   -7.6468  -15.9164   23.8659 H   0  0  0  0  0  0  0  0  0  0  0  0
   -3.1387  -17.0997   21.1995 H   0  0  0  0  0  0  0  0  0  0  0  0
  1  2  2  0
  2  3  1  0
  3  4  1  0
  4  5  2  0
  5  6  1  0
  6  7  2  0
  7  8  1  0
  2  9  1  0
  9 10  1  0
 10 11  1  0
 11 12  2  0
 12 13  1  0
 13 14  2  0
 14 15  1  0
 15 16  2  0
 16 17  1  0
 17 18  2  0
 18 19  1  0
 19 20  1  0
 20 21  1  0
 20 22  1  0
  8  4  1  0
 19 11  1  0
 18 13  1  0
  3 23  1  0
  3 24  1  0
  5 25  1  0
  6 26  1  0
  8 27  1  0
 10 28  1  0
 10 29  1  0
 14 30  1  0
 15 31  1  0
 16 32  1  0
 17 33  1  0
 20 34  1  0
M  END
>  <Energy>  (346) 
977.8057946640414

>  <compound_id>  (346) 
35257

>  <target_id>  (346) 
1

>  <reference_id>  (346) 
94

>  <inspiration_ids>  (346) 
[94, 122]

>  <energy_score>  (346) 
904.3829264370202

>  <distance_score>  (346) 
14.180017175534225

>  <path>  (346) 
/opt/xchem-fragalysis-2/maxwin/BulkDock/SCRATCH/511015/C35257-P94/C35257-P94.minimised.mol

>  <scratch_subdir>  (346) 
/opt/xchem-fragalysis-2/maxwin/BulkDock/SCRATCH/511015/C35257-P94

>  <fragmenstein_runtime>  (346) 
18.612062215805054

>  <fragmenstein_outcome>  (346) 
too moved

>  <fragmenstein_mode>  (346) 
expansion

>  <fragmenstein_error>  (346) 


$$$$
C35257-P122
     RDKit          3D

 34 36  0  0  0  0  0  0  0  0999 V2000
   -5.5580  -20.3927   19.6327 O   0  0  0  0  0  0  0  0  0  0  0  0
   -6.4701  -19.5753   19.6130 C   0  0  0  0  0  0  0  0  0  0  0  0
   -6.4022  -18.2365   18.8548 C   0  0  0  0  0  0  0  0  0  0  0  0
   -5.0832  -17.8653   18.1348 C   0  0  0  0  0  0  0  0  0  0  0  0
   -4.8567  -17.0678   17.0177 C   0  0  0  0  0  0  0  0  0  0  0  0
   -3.4639  -17.0561   16.8240 C   0  0  0  0  0  0  0  0  0  0  0  0
   -2.8330  -17.7339   17.7810 N   0  0  0  0  0  0  0  0  0  0  0  0
   -3.8232  -18.2692   18.5176 N   0  0  0  0  0  0  0  0  0  0  0  0
   -7.6931  -19.7505   20.2752 O   0  0  0  0  0  0  0  0  0  0  0  0
   -7.7445  -20.9572   21.0965 C   0  0  0  0  0  0  0  0  0  0  0  0
   -9.1275  -21.2933   21.6982 C   0  0  0  0  0  0  0  0  0  0  0  0
   -9.4259  -22.4823   22.2344 N   0  0  0  0  0  0  0  0  0  0  0  0
  -10.7232  -22.4082   22.7053 C   0  0  0  0  0  0  0  0  0  0  0  0
  -11.5090  -23.3179   23.4338 C   0  0  0  0  0  0  0  0  0  0  0  0
  -12.8400  -23.0174   23.7223 C   0  0  0  0  0  0  0  0  0  0  0  0
  -13.3768  -21.7958   23.3348 C   0  0  0  0  0  0  0  0  0  0  0  0
  -12.5840  -20.8216   22.7256 C   0  0  0  0  0  0  0  0  0  0  0  0
  -11.2574  -21.1633   22.4311 C   0  0  0  0  0  0  0  0  0  0  0  0
  -10.1779  -20.4305   21.9717 N   0  0  0  0  0  0  0  0  0  0  0  0
  -10.1309  -18.9913   22.1013 C   0  0  0  0  0  0  0  0  0  0  0  0
  -10.7781  -18.5946   23.2446 F   0  0  0  0  0  0  0  0  0  0  0  0
  -10.7837  -18.3943   21.0683 F   0  0  0  0  0  0  0  0  0  0  0  0
   -7.1988  -18.2533   18.1018 H   0  0  0  0  0  0  0  0  0  0  0  0
   -6.6208  -17.4433   19.5777 H   0  0  0  0  0  0  0  0  0  0  0  0
   -5.6066  -16.5738   16.4162 H   0  0  0  0  0  0  0  0  0  0  0  0
   -2.8950  -16.5629   16.0468 H   0  0  0  0  0  0  0  0  0  0  0  0
   -3.5773  -18.9366   19.2443 H   0  0  0  0  0  0  0  0  0  0  0  0
   -7.0420  -20.8351   21.9279 H   0  0  0  0  0  0  0  0  0  0  0  0
   -7.4422  -21.8159   20.4851 H   0  0  0  0  0  0  0  0  0  0  0  0
  -11.0854  -24.2204   23.8340 H   0  0  0  0  0  0  0  0  0  0  0  0
  -13.4473  -23.7189   24.2884 H   0  0  0  0  0  0  0  0  0  0  0  0
  -14.4100  -21.5654   23.5857 H   0  0  0  0  0  0  0  0  0  0  0  0
  -12.9891  -19.8401   22.5015 H   0  0  0  0  0  0  0  0  0  0  0  0
   -9.0993  -18.6417   22.1227 H   0  0  0  0  0  0  0  0  0  0  0  0
  1  2  2  0
  2  3  1  0
  3  4  1  0
  4  5  2  0
  5  6  1  0
  6  7  2  0
  7  8  1  0
  2  9  1  0
  9 10  1  0
 10 11  1  0
 11 12  2  0
 12 13  1  0
 13 14  2  0
 14 15  1  0
 15 16  2  0
 16 17  1  0
 17 18  2  0
 18 19  1  0
 19 20  1  0
 20 21  1  0
 20 22  1  0
  8  4  1  0
 19 11  1  0
 18 13  1  0
  3 23  1  0
  3 24  1  0
  5 25  1  0
  6 26  1  0
  8 27  1  0
 10 28  1  0
 10 29  1  0
 14 30  1  0
 15 31  1  0
 16 32  1  0
 17 33  1  0
 20 34  1  0
M  END
>  <Energy>  (347) 
53.665742088709784

>  <compound_id>  (347) 
35257

>  <target_id>  (347) 
1

>  <reference_id>  (347) 
122

>  <inspiration_ids>  (347) 
[94, 122]

>  <energy_score>  (347) 
-19.757126138312742

>  <distance_score>  (347) 
15.793567897405023

>  <path>  (347) 
/opt/xchem-fragalysis-2/maxwin/BulkDock/SCRATCH/511015/C35257-P122/C35257-P122.minimised.mol

>  <scratch_subdir>  (347) 
/opt/xchem-fragalysis-2/maxwin/BulkDock/SCRATCH/511015/C35257-P122

>  <fragmenstein_runtime>  (347) 
16.805476427078247

>  <fragmenstein_outcome>  (347) 
too moved

>  <fragmenstein_mode>  (347) 
expansion

>  <fragmenstein_error>  (347) 


$$$$
C35258-P94
     RDKit          3D

 35 37  0  0  0  0  0  0  0  0999 V2000
  -11.1264  -21.4241   29.4001 C   0  0  0  0  0  0  0  0  0  0  0  0
  -10.2872  -20.2172   29.4966 O   0  0  0  0  0  0  0  0  0  0  0  0
   -9.2167  -19.9530   28.2140 C   0  0  0  0  0  0  0  0  0  0  0  0
   -9.4154  -20.7674   27.3802 O   0  0  0  0  0  0  0  0  0  0  0  0
   -7.8075  -18.6975   28.1415 C   0  0  0  0  0  0  0  0  0  0  0  0
   -6.3338  -18.9625   27.9254 N   0  0  0  0  0  0  0  0  0  0  0  0
   -5.4201  -17.8865   27.0341 C   0  0  0  0  0  0  0  0  0  0  0  0
   -3.6229  -16.9138   26.2975 C   0  0  0  0  0  0  0  0  0  0  0  0
   -2.9313  -15.6266   24.7478 C   0  0  0  0  0  0  0  0  0  0  0  0
   -1.0818  -14.4951   24.2781 N   0  0  0  0  0  0  0  0  0  0  0  0
   -0.5026  -12.9600   22.8752 C   0  0  0  0  0  0  0  0  0  0  0  0
   -1.3605  -12.3013   21.5968 O   0  0  0  0  0  0  0  0  0  0  0  0
    1.1471  -11.8420   23.0527 C   0  0  0  0  0  0  0  0  0  0  0  0
    0.3437  -10.3905   21.9306 C   0  0  0  0  0  0  0  0  0  0  0  0
   -0.8818   -9.7627   21.6099 C   0  0  0  0  0  0  0  0  0  0  0  0
   -0.6413   -8.4450   21.1176 C   0  0  0  0  0  0  0  0  0  0  0  0
    0.6445   -8.1506   21.0635 N   0  0  0  0  0  0  0  0  0  0  0  0
    1.1852   -9.3583   21.2848 N   0  0  0  0  0  0  0  0  0  0  0  0
   -4.9125  -15.5517   24.5107 C   0  0  0  0  0  0  0  0  0  0  0  0
   -6.8214  -15.3493   25.4726 C   0  0  0  0  0  0  0  0  0  0  0  0
   -7.1920  -16.8263   26.8918 C   0  0  0  0  0  0  0  0  0  0  0  0
   -8.1431  -17.3937   27.7204 N   0  0  0  0  0  0  0  0  0  0  0  0
  -12.1412  -21.1313   29.1338 H   0  0  0  0  0  0  0  0  0  0  0  0
  -10.7517  -22.1446   28.6714 H   0  0  0  0  0  0  0  0  0  0  0  0
  -11.1648  -21.8752   30.3948 H   0  0  0  0  0  0  0  0  0  0  0  0
   -2.7792  -17.2818   26.9574 H   0  0  0  0  0  0  0  0  0  0  0  0
   -0.3751  -14.6930   24.8029 H   0  0  0  0  0  0  0  0  0  0  0  0
    2.2351  -12.0751   22.9068 H   0  0  0  0  0  0  0  0  0  0  0  0
    1.4829  -11.7191   24.0918 H   0  0  0  0  0  0  0  0  0  0  0  0
   -1.8873  -10.1308   21.6681 H   0  0  0  0  0  0  0  0  0  0  0  0
   -1.3707   -7.7085   20.8116 H   0  0  0  0  0  0  0  0  0  0  0  0
    2.1806   -9.4808   21.1661 H   0  0  0  0  0  0  0  0  0  0  0  0
   -4.9419  -14.9443   23.5707 H   0  0  0  0  0  0  0  0  0  0  0  0
   -7.7394  -15.0475   24.9433 H   0  0  0  0  0  0  0  0  0  0  0  0
   -9.0933  -17.0640   27.7434 H   0  0  0  0  0  0  0  0  0  0  0  0
  1  2  1  0
  2  3  1  0
  3  4  2  0
  3  5  1  0
  5  6  2  0
  6  7  1  0
  7  8  2  0
  8  9  1  0
  9 10  1  0
 10 11  1  0
 11 12  2  0
 11 13  1  0
 13 14  1  0
 14 15  2  0
 15 16  1  0
 16 17  2  0
 17 18  1  0
  9 19  2  0
 19 20  1  0
 20 21  2  0
 21 22  1  0
 22  5  1  0
 21  7  1  0
 18 14  1  0
  1 23  1  0
  1 24  1  0
  1 25  1  0
  8 26  1  0
 10 27  1  0
 13 28  1  0
 13 29  1  0
 15 30  1  0
 16 31  1  0
 18 32  1  0
 19 33  1  0
 20 34  1  0
 22 35  1  0
M  END
>  <Energy>  (348) 
2219.0009352554116

>  <compound_id>  (348) 
35258

>  <target_id>  (348) 
1

>  <reference_id>  (348) 
94

>  <inspiration_ids>  (348) 
[94, 122]

>  <energy_score>  (348) 
2126.7376279909986

>  <distance_score>  (348) 
12.572068129541979

>  <path>  (348) 
/opt/xchem-fragalysis-2/maxwin/BulkDock/SCRATCH/511015/C35258-P94/C35258-P94.minimised.mol

>  <scratch_subdir>  (348) 
/opt/xchem-fragalysis-2/maxwin/BulkDock/SCRATCH/511015/C35258-P94

>  <fragmenstein_runtime>  (348) 
25.32908535003662

>  <fragmenstein_outcome>  (348) 
too moved

>  <fragmenstein_mode>  (348) 
expansion

>  <fragmenstein_error>  (348) 


$$$$
C35258-P122
     RDKit          3D

 35 37  0  0  0  0  0  0  0  0999 V2000
   -2.2468  -22.0415   28.8677 C   0  0  0  0  0  0  0  0  0  0  0  0
   -2.2430  -20.8411   28.0982 O   0  0  0  0  0  0  0  0  0  0  0  0
   -2.0820  -19.7087   28.8404 C   0  0  0  0  0  0  0  0  0  0  0  0
   -1.9117  -19.6967   30.0560 O   0  0  0  0  0  0  0  0  0  0  0  0
   -2.1463  -18.5196   28.0255 C   0  0  0  0  0  0  0  0  0  0  0  0
   -1.9892  -18.4139   26.7051 N   0  0  0  0  0  0  0  0  0  0  0  0
   -2.4828  -17.1309   26.3507 C   0  0  0  0  0  0  0  0  0  0  0  0
   -2.3323  -16.1218   24.8593 C   0  0  0  0  0  0  0  0  0  0  0  0
   -1.5955  -15.0347   24.0944 C   0  0  0  0  0  0  0  0  0  0  0  0
   -0.4717  -13.6351   23.3486 N   0  0  0  0  0  0  0  0  0  0  0  0
   -0.8937  -12.1024   22.0621 C   0  0  0  0  0  0  0  0  0  0  0  0
   -1.9759  -11.8512   21.3973 O   0  0  0  0  0  0  0  0  0  0  0  0
    0.2999  -10.6795   21.8382 C   0  0  0  0  0  0  0  0  0  0  0  0
    0.5822   -9.0454   21.2230 C   0  0  0  0  0  0  0  0  0  0  0  0
    1.7742   -8.3096   21.1580 C   0  0  0  0  0  0  0  0  0  0  0  0
    1.4734   -7.1192   20.4843 C   0  0  0  0  0  0  0  0  0  0  0  0
    0.1882   -7.0595   20.1388 N   0  0  0  0  0  0  0  0  0  0  0  0
   -0.3142   -8.2539   20.5432 N   0  0  0  0  0  0  0  0  0  0  0  0
   -1.8744  -14.4170   25.5945 C   0  0  0  0  0  0  0  0  0  0  0  0
   -1.9966  -15.0353   27.2511 C   0  0  0  0  0  0  0  0  0  0  0  0
   -2.2889  -16.4073   27.5511 C   0  0  0  0  0  0  0  0  0  0  0  0
   -2.3253  -17.2735   28.5817 N   0  0  0  0  0  0  0  0  0  0  0  0
   -2.9220  -21.9670   29.7254 H   0  0  0  0  0  0  0  0  0  0  0  0
   -2.5970  -22.8548   28.2260 H   0  0  0  0  0  0  0  0  0  0  0  0
   -1.2306  -22.2740   29.1998 H   0  0  0  0  0  0  0  0  0  0  0  0
   -3.3670  -15.8212   24.6504 H   0  0  0  0  0  0  0  0  0  0  0  0
    0.4221  -13.5196   23.7813 H   0  0  0  0  0  0  0  0  0  0  0  0
   -0.4179  -10.5416   21.0073 H   0  0  0  0  0  0  0  0  0  0  0  0
   -0.2276  -10.1501   22.6251 H   0  0  0  0  0  0  0  0  0  0  0  0
    2.7379   -8.6187   21.5314 H   0  0  0  0  0  0  0  0  0  0  0  0
    2.1274   -6.2957   20.2341 H   0  0  0  0  0  0  0  0  0  0  0  0
   -1.2571   -8.5014   20.2663 H   0  0  0  0  0  0  0  0  0  0  0  0
   -1.6373  -13.3623   25.5913 H   0  0  0  0  0  0  0  0  0  0  0  0
   -1.6602  -14.4713   28.1074 H   0  0  0  0  0  0  0  0  0  0  0  0
   -2.2948  -17.0783   29.5728 H   0  0  0  0  0  0  0  0  0  0  0  0
  1  2  1  0
  2  3  1  0
  3  4  2  0
  3  5  1  0
  5  6  2  0
  6  7  1  0
  7  8  2  0
  8  9  1  0
  9 10  1  0
 10 11  1  0
 11 12  2  0
 11 13  1  0
 13 14  1  0
 14 15  2  0
 15 16  1  0
 16 17  2  0
 17 18  1  0
  9 19  2  0
 19 20  1  0
 20 21  2  0
 21 22  1  0
 22  5  1  0
 21  7  1  0
 18 14  1  0
  1 23  1  0
  1 24  1  0
  1 25  1  0
  8 26  1  0
 10 27  1  0
 13 28  1  0
 13 29  1  0
 15 30  1  0
 16 31  1  0
 18 32  1  0
 19 33  1  0
 20 34  1  0
 22 35  1  0
M  END
>  <Energy>  (349) 
705.53016862382094

>  <compound_id>  (349) 
35258

>  <target_id>  (349) 
1

>  <reference_id>  (349) 
122

>  <inspiration_ids>  (349) 
[94, 122]

>  <energy_score>  (349) 
613.2668613594076

>  <distance_score>  (349) 
13.563430595525514

>  <path>  (349) 
/opt/xchem-fragalysis-2/maxwin/BulkDock/SCRATCH/511015/C35258-P122/C35258-P122.minimised.mol

>  <scratch_subdir>  (349) 
/opt/xchem-fragalysis-2/maxwin/BulkDock/SCRATCH/511015/C35258-P122

>  <fragmenstein_runtime>  (349) 
21.009571075439453

>  <fragmenstein_outcome>  (349) 
too moved

>  <fragmenstein_mode>  (349) 
expansion

>  <fragmenstein_error>  (349) 


$$$$
C35259-P94
     RDKit          3D

 38 41  0  0  0  0  0  0  0  0999 V2000
   -2.8057  -14.0950   30.1310 O   0  0  0  0  0  0  0  0  0  0  0  0
   -1.9059  -14.8913   30.2641 C   0  0  0  0  0  0  0  0  0  0  0  0
   -0.6487  -15.2126   29.0597 N   0  0  0  0  0  0  0  0  0  0  0  0
   -0.2823  -14.3570   27.3743 C   0  0  0  0  0  0  0  0  0  0  0  0
    1.0961  -13.2809   26.2144 C   0  0  0  0  0  0  0  0  0  0  0  0
    2.1233  -13.0993   24.6325 N   0  0  0  0  0  0  0  0  0  0  0  0
    2.4532  -12.1269   23.4564 C   0  0  0  0  0  0  0  0  0  0  0  0
    3.3725  -12.7144   22.4977 C   0  0  0  0  0  0  0  0  0  0  0  0
    4.6003  -12.4827   20.8577 C   0  0  0  0  0  0  0  0  0  0  0  0
    4.7913  -13.0017   19.5444 C   0  0  0  0  0  0  0  0  0  0  0  0
    6.0359  -12.5922   18.9922 C   0  0  0  0  0  0  0  0  0  0  0  0
    6.6843  -11.8041   19.8271 N   0  0  0  0  0  0  0  0  0  0  0  0
    5.7966  -11.6937   20.8270 N   0  0  0  0  0  0  0  0  0  0  0  0
    3.1718  -14.0250   23.1185 N   0  0  0  0  0  0  0  0  0  0  0  0
    3.3095  -13.8055   24.4035 N   0  0  0  0  0  0  0  0  0  0  0  0
   -1.9695  -15.5216   31.7283 C   0  0  0  0  0  0  0  0  0  0  0  0
   -3.2951  -15.3129   32.2975 C   0  0  0  0  0  0  0  0  0  0  0  0
   -3.8497  -15.9953   33.3851 C   0  0  0  0  0  0  0  0  0  0  0  0
   -3.1141  -16.9716   34.0149 C   0  0  0  0  0  0  0  0  0  0  0  0
   -1.8083  -17.1420   33.5559 C   0  0  0  0  0  0  0  0  0  0  0  0
   -0.8806  -18.0753   33.9394 N   0  0  0  0  0  0  0  0  0  0  0  0
    0.2318  -17.8958   33.1802 C   0  0  0  0  0  0  0  0  0  0  0  0
    0.0919  -16.9050   32.3295 N   0  0  0  0  0  0  0  0  0  0  0  0
   -1.1906  -16.4109   32.5149 C   0  0  0  0  0  0  0  0  0  0  0  0
    0.0283  -15.8545   29.4495 H   0  0  0  0  0  0  0  0  0  0  0  0
   -1.3297  -14.6793   27.0020 H   0  0  0  0  0  0  0  0  0  0  0  0
    0.8951  -14.8455   26.9258 H   0  0  0  0  0  0  0  0  0  0  0  0
    2.0240  -13.6997   26.6289 H   0  0  0  0  0  0  0  0  0  0  0  0
    0.7709  -13.8712   25.3872 H   0  0  0  0  0  0  0  0  0  0  0  0
    1.5172  -11.7110   23.2097 H   0  0  0  0  0  0  0  0  0  0  0  0
    4.1157  -13.5805   18.9355 H   0  0  0  0  0  0  0  0  0  0  0  0
    6.4537  -12.8334   18.0245 H   0  0  0  0  0  0  0  0  0  0  0  0
    6.0696  -11.0954   21.5834 H   0  0  0  0  0  0  0  0  0  0  0  0
   -3.9835  -14.6183   31.8096 H   0  0  0  0  0  0  0  0  0  0  0  0
   -4.8729  -15.7905   33.6895 H   0  0  0  0  0  0  0  0  0  0  0  0
   -3.5318  -17.5690   34.8177 H   0  0  0  0  0  0  0  0  0  0  0  0
   -1.0090  -18.7772   34.6538 H   0  0  0  0  0  0  0  0  0  0  0  0
    1.1164  -18.5084   33.2919 H   0  0  0  0  0  0  0  0  0  0  0  0
  1  2  2  0
  2  3  1  0
  3  4  1  0
  4  5  1  0
  5  6  1  0
  6  7  1  0
  7  8  2  0
  8  9  1  0
  9 10  2  0
 10 11  1  0
 11 12  2  0
 12 13  1  0
  8 14  1  0
 14 15  2  0
  2 16  1  0
 16 17  2  0
 17 18  1  0
 18 19  2  0
 19 20  1  0
 20 21  1  0
 21 22  1  0
 22 23  2  0
 23 24  1  0
 15  6  1  0
 24 16  1  0
 13  9  1  0
 24 20  2  0
  3 25  1  0
  4 26  1  0
  4 27  1  0
  5 28  1  0
  5 29  1  0
  7 30  1  0
 10 31  1  0
 11 32  1  0
 13 33  1  0
 17 34  1  0
 18 35  1  0
 19 36  1  0
 21 37  1  0
 22 38  1  0
M  END
>  <Energy>  (350) 
641.96168040952659

>  <compound_id>  (350) 
35259

>  <target_id>  (350) 
1

>  <reference_id>  (350) 
94

>  <inspiration_ids>  (350) 
[94, 122]

>  <energy_score>  (350) 
602.9746377774366

>  <distance_score>  (350) 
12.979266215181982

>  <path>  (350) 
/opt/xchem-fragalysis-2/maxwin/BulkDock/SCRATCH/511015/C35259-P94/C35259-P94.minimised.mol

>  <scratch_subdir>  (350) 
/opt/xchem-fragalysis-2/maxwin/BulkDock/SCRATCH/511015/C35259-P94

>  <fragmenstein_runtime>  (350) 
26.337218523025513

>  <fragmenstein_outcome>  (350) 
too moved

>  <fragmenstein_mode>  (350) 
expansion

>  <fragmenstein_error>  (350) 


$$$$
C35259-P122
     RDKit          3D

 38 41  0  0  0  0  0  0  0  0999 V2000
   -5.0612  -19.7538   25.9297 O   0  0  0  0  0  0  0  0  0  0  0  0
   -5.3242  -19.1324   26.9548 C   0  0  0  0  0  0  0  0  0  0  0  0
   -4.0601  -17.3888   27.1036 N   0  0  0  0  0  0  0  0  0  0  0  0
   -2.6392  -16.5279   25.7358 C   0  0  0  0  0  0  0  0  0  0  0  0
   -1.4866  -14.9158   24.5818 C   0  0  0  0  0  0  0  0  0  0  0  0
   -0.5151  -13.6435   23.1234 N   0  0  0  0  0  0  0  0  0  0  0  0
   -1.1423  -12.1492   21.7972 C   0  0  0  0  0  0  0  0  0  0  0  0
   -0.7251  -10.7807   21.7567 C   0  0  0  0  0  0  0  0  0  0  0  0
   -0.8326   -9.3467   21.1642 C   0  0  0  0  0  0  0  0  0  0  0  0
   -1.6589   -8.7028   20.2806 C   0  0  0  0  0  0  0  0  0  0  0  0
   -1.0241   -7.4546   20.0302 C   0  0  0  0  0  0  0  0  0  0  0  0
    0.0852   -7.2762   20.7514 N   0  0  0  0  0  0  0  0  0  0  0  0
    0.1866   -8.4462   21.4116 N   0  0  0  0  0  0  0  0  0  0  0  0
    0.3434  -10.9993   22.4360 N   0  0  0  0  0  0  0  0  0  0  0  0
    0.6439  -12.2060   22.9339 N   0  0  0  0  0  0  0  0  0  0  0  0
   -6.9723  -20.0532   27.7748 C   0  0  0  0  0  0  0  0  0  0  0  0
   -7.9421  -21.0403   27.3373 C   0  0  0  0  0  0  0  0  0  0  0  0
   -9.7782  -21.0866   27.8210 C   0  0  0  0  0  0  0  0  0  0  0  0
  -10.4555  -21.7387   28.7326 C   0  0  0  0  0  0  0  0  0  0  0  0
   -9.4132  -22.4429   28.2122 C   0  0  0  0  0  0  0  0  0  0  0  0
   -9.6316  -23.7200   27.7583 N   0  0  0  0  0  0  0  0  0  0  0  0
   -8.5897  -24.0734   28.4369 C   0  0  0  0  0  0  0  0  0  0  0  0
   -7.3532  -23.1625   28.0435 N   0  0  0  0  0  0  0  0  0  0  0  0
   -7.6763  -21.8417   27.9201 C   0  0  0  0  0  0  0  0  0  0  0  0
   -4.2268  -16.9535   27.9693 H   0  0  0  0  0  0  0  0  0  0  0  0
   -2.2931  -16.2519   26.8323 H   0  0  0  0  0  0  0  0  0  0  0  0
   -2.1642  -17.5005   25.5251 H   0  0  0  0  0  0  0  0  0  0  0  0
   -1.6872  -14.0532   25.2531 H   0  0  0  0  0  0  0  0  0  0  0  0
   -2.1568  -15.2053   23.7870 H   0  0  0  0  0  0  0  0  0  0  0  0
   -1.7503  -12.5902   20.9469 H   0  0  0  0  0  0  0  0  0  0  0  0
   -2.5439   -9.0994   19.8079 H   0  0  0  0  0  0  0  0  0  0  0  0
   -1.3405   -6.6729   19.3526 H   0  0  0  0  0  0  0  0  0  0  0  0
    0.9936   -8.6369   22.0001 H   0  0  0  0  0  0  0  0  0  0  0  0
   -7.6290  -22.1074   26.3715 H   0  0  0  0  0  0  0  0  0  0  0  0
  -10.5725  -21.1830   26.9671 H   0  0  0  0  0  0  0  0  0  0  0  0
  -11.4922  -22.0307   28.7449 H   0  0  0  0  0  0  0  0  0  0  0  0
  -10.5326  -24.1790   27.7419 H   0  0  0  0  0  0  0  0  0  0  0  0
   -8.5086  -25.0310   28.9638 H   0  0  0  0  0  0  0  0  0  0  0  0
  1  2  2  0
  2  3  1  0
  3  4  1  0
  4  5  1  0
  5  6  1  0
  6  7  1  0
  7  8  2  0
  8  9  1  0
  9 10  2  0
 10 11  1  0
 11 12  2  0
 12 13  1  0
  8 14  1  0
 14 15  2  0
  2 16  1  0
 16 17  2  0
 17 18  1  0
 18 19  2  0
 19 20  1  0
 20 21  1  0
 21 22  1  0
 22 23  2  0
 23 24  1  0
 15  6  1  0
 24 16  1  0
 13  9  1  0
 24 20  2  0
  3 25  1  0
  4 26  1  0
  4 27  1  0
  5 28  1  0
  5 29  1  0
  7 30  1  0
 10 31  1  0
 11 32  1  0
 13 33  1  0
 17 34  1  0
 18 35  1  0
 19 36  1  0
 21 37  1  0
 22 38  1  0
M  END
>  <Energy>  (351) 
2154.4103971466398

>  <compound_id>  (351) 
35259

>  <target_id>  (351) 
1

>  <reference_id>  (351) 
122

>  <inspiration_ids>  (351) 
[94, 122]

>  <energy_score>  (351) 
2115.423354514579

>  <distance_score>  (351) 
10.51350833364143

>  <path>  (351) 
/opt/xchem-fragalysis-2/maxwin/BulkDock/SCRATCH/511015/C35259-P122/C35259-P122.minimised.mol

>  <scratch_subdir>  (351) 
/opt/xchem-fragalysis-2/maxwin/BulkDock/SCRATCH/511015/C35259-P122

>  <fragmenstein_runtime>  (351) 
21.19384789466858

>  <fragmenstein_outcome>  (351) 
too moved

>  <fragmenstein_mode>  (351) 
expansion

>  <fragmenstein_error>  (351) 


$$$$
C35263-P94
     RDKit          3D

 32 35  0  0  0  0  0  0  0  0999 V2000
  -11.1724  -21.5167   26.9114 C   0  0  0  0  0  0  0  0  0  0  0  0
   -9.6095  -20.6558   27.6285 C   0  0  0  0  0  0  0  0  0  0  0  0
  -10.1072  -21.4934   28.5819 C   0  0  0  0  0  0  0  0  0  0  0  0
   -9.7898  -20.3850   29.1522 C   0  0  0  0  0  0  0  0  0  0  0  0
   -8.0643  -19.3076   28.6825 C   0  0  0  0  0  0  0  0  0  0  0  0
   -6.3813  -18.6300   29.2083 N   0  0  0  0  0  0  0  0  0  0  0  0
   -5.6409  -17.1083   29.2002 C   0  0  0  0  0  0  0  0  0  0  0  0
   -3.8202  -16.3691   28.6108 C   0  0  0  0  0  0  0  0  0  0  0  0
   -2.7798  -16.7173   27.5581 C   0  0  0  0  0  0  0  0  0  0  0  0
   -2.0975  -15.2732   27.0599 C   0  0  0  0  0  0  0  0  0  0  0  0
   -1.0307  -14.8230   27.7495 C   0  0  0  0  0  0  0  0  0  0  0  0
    0.4841  -13.8207   26.8639 C   0  0  0  0  0  0  0  0  0  0  0  0
    1.0949  -12.7733   26.1394 C   0  0  0  0  0  0  0  0  0  0  0  0
    1.9273  -13.1878   25.0886 C   0  0  0  0  0  0  0  0  0  0  0  0
    2.8419  -13.9327   25.8114 N   0  0  0  0  0  0  0  0  0  0  0  0
    2.1522  -14.0927   26.9401 N   0  0  0  0  0  0  0  0  0  0  0  0
   -2.4771  -15.0470   28.9172 O   0  0  0  0  0  0  0  0  0  0  0  0
   -7.2738  -16.8242   28.7779 N   0  0  0  0  0  0  0  0  0  0  0  0
   -8.1660  -17.9731   28.3689 C   0  0  0  0  0  0  0  0  0  0  0  0
   -9.2062  -18.6580   27.7574 C   0  0  0  0  0  0  0  0  0  0  0  0
  -11.4926  -21.1338   25.9434 H   0  0  0  0  0  0  0  0  0  0  0  0
  -11.0401  -22.6198   26.8395 H   0  0  0  0  0  0  0  0  0  0  0  0
  -11.9826  -21.4196   27.6522 H   0  0  0  0  0  0  0  0  0  0  0  0
  -10.7069  -22.3295   28.8370 H   0  0  0  0  0  0  0  0  0  0  0  0
  -10.2266  -20.5202   30.2048 H   0  0  0  0  0  0  0  0  0  0  0  0
   -2.7080  -17.5648   26.9223 H   0  0  0  0  0  0  0  0  0  0  0  0
   -2.1673  -14.9512   26.0016 H   0  0  0  0  0  0  0  0  0  0  0  0
    0.9736  -11.7208   26.1871 H   0  0  0  0  0  0  0  0  0  0  0  0
    2.2891  -12.7497   24.1587 H   0  0  0  0  0  0  0  0  0  0  0  0
    2.6511  -14.6064   27.6742 H   0  0  0  0  0  0  0  0  0  0  0  0
   -7.4905  -15.8677   28.5680 H   0  0  0  0  0  0  0  0  0  0  0  0
   -9.8218  -17.8480   27.3022 H   0  0  0  0  0  0  0  0  0  0  0  0
  1  2  1  0
  2  3  2  0
  3  4  1  0
  4  5  2  0
  5  6  1  0
  6  7  2  0
  7  8  1  0
  8  9  2  0
  9 10  1  0
 10 11  2  0
 11 12  1  0
 12 13  2  0
 13 14  1  0
 14 15  2  0
 15 16  1  0
 11 17  1  0
  7 18  1  0
 18 19  1  0
 19 20  2  0
 20  2  1  0
 19  5  1  0
 17  8  1  0
 16 12  1  0
  1 21  1  0
  1 22  1  0
  1 23  1  0
  3 24  1  0
  4 25  1  0
  9 26  1  0
 10 27  1  0
 13 28  1  0
 14 29  1  0
 16 30  1  0
 18 31  1  0
 20 32  1  0
M  END
>  <Energy>  (352) 
1544.0759909387195

>  <compound_id>  (352) 
35263

>  <target_id>  (352) 
1

>  <reference_id>  (352) 
94

>  <inspiration_ids>  (352) 
[94, 122]

>  <energy_score>  (352) 
1504.570725782527

>  <distance_score>  (352) 
13.592166179783142

>  <path>  (352) 
/opt/xchem-fragalysis-2/maxwin/BulkDock/SCRATCH/511015/C35263-P94/C35263-P94.minimised.mol

>  <scratch_subdir>  (352) 
/opt/xchem-fragalysis-2/maxwin/BulkDock/SCRATCH/511015/C35263-P94

>  <fragmenstein_runtime>  (352) 
9.709976434707642

>  <fragmenstein_outcome>  (352) 
too moved

>  <fragmenstein_mode>  (352) 
expansion

>  <fragmenstein_error>  (352) 


$$$$
C35263-P122
     RDKit          3D

 32 35  0  0  0  0  0  0  0  0999 V2000
   -1.5739  -25.7102   26.5268 C   0  0  0  0  0  0  0  0  0  0  0  0
   -2.4193  -24.4655   26.5054 C   0  0  0  0  0  0  0  0  0  0  0  0
   -2.6857  -23.8019   27.7117 C   0  0  0  0  0  0  0  0  0  0  0  0
   -3.3446  -22.5731   27.7181 C   0  0  0  0  0  0  0  0  0  0  0  0
   -3.7213  -22.0109   26.4966 C   0  0  0  0  0  0  0  0  0  0  0  0
   -4.2448  -20.7885   26.2495 N   0  0  0  0  0  0  0  0  0  0  0  0
   -4.1710  -20.5909   24.9374 C   0  0  0  0  0  0  0  0  0  0  0  0
   -4.2902  -19.2083   24.2868 C   0  0  0  0  0  0  0  0  0  0  0  0
   -5.2964  -18.3202   22.9092 C   0  0  0  0  0  0  0  0  0  0  0  0
   -4.0889  -16.7224   22.2462 C   0  0  0  0  0  0  0  0  0  0  0  0
   -3.2426  -16.0498   23.8805 C   0  0  0  0  0  0  0  0  0  0  0  0
   -2.0929  -15.2897   24.0976 C   0  0  0  0  0  0  0  0  0  0  0  0
   -1.6737  -14.5654   25.1214 C   0  0  0  0  0  0  0  0  0  0  0  0
   -0.3802  -14.2820   24.4588 C   0  0  0  0  0  0  0  0  0  0  0  0
   -0.2127  -14.1059   23.1757 N   0  0  0  0  0  0  0  0  0  0  0  0
   -1.1979  -14.8983   22.9706 N   0  0  0  0  0  0  0  0  0  0  0  0
   -2.9683  -17.7081   24.9344 O   0  0  0  0  0  0  0  0  0  0  0  0
   -3.8392  -21.7777   24.3256 N   0  0  0  0  0  0  0  0  0  0  0  0
   -3.4665  -22.6749   25.3103 C   0  0  0  0  0  0  0  0  0  0  0  0
   -2.8391  -23.9215   25.2733 C   0  0  0  0  0  0  0  0  0  0  0  0
   -0.5208  -25.4420   26.6570 H   0  0  0  0  0  0  0  0  0  0  0  0
   -1.8794  -26.3685   27.3468 H   0  0  0  0  0  0  0  0  0  0  0  0
   -1.6731  -26.2752   25.5942 H   0  0  0  0  0  0  0  0  0  0  0  0
   -2.3250  -24.2091   28.6532 H   0  0  0  0  0  0  0  0  0  0  0  0
   -3.4625  -21.9994   28.6290 H   0  0  0  0  0  0  0  0  0  0  0  0
   -6.0041  -18.8268   22.2485 H   0  0  0  0  0  0  0  0  0  0  0  0
   -4.1802  -16.3865   21.2113 H   0  0  0  0  0  0  0  0  0  0  0  0
   -2.0751  -14.5669   26.1127 H   0  0  0  0  0  0  0  0  0  0  0  0
    0.5887  -14.0643   24.9297 H   0  0  0  0  0  0  0  0  0  0  0  0
   -1.3314  -15.2209   22.0228 H   0  0  0  0  0  0  0  0  0  0  0  0
   -3.6752  -21.8997   23.3398 H   0  0  0  0  0  0  0  0  0  0  0  0
   -2.6005  -24.4031   24.3310 H   0  0  0  0  0  0  0  0  0  0  0  0
  1  2  1  0
  2  3  2  0
  3  4  1  0
  4  5  2  0
  5  6  1  0
  6  7  2  0
  7  8  1  0
  8  9  2  0
  9 10  1  0
 10 11  2  0
 11 12  1  0
 12 13  2  0
 13 14  1  0
 14 15  2  0
 15 16  1  0
 11 17  1  0
  7 18  1  0
 18 19  1  0
 19 20  2  0
 20  2  1  0
 19  5  1  0
 17  8  1  0
 16 12  1  0
  1 21  1  0
  1 22  1  0
  1 23  1  0
  3 24  1  0
  4 25  1  0
  9 26  1  0
 10 27  1  0
 13 28  1  0
 14 29  1  0
 16 30  1  0
 18 31  1  0
 20 32  1  0
M  END
>  <Energy>  (353) 
683.94197162221337

>  <compound_id>  (353) 
35263

>  <target_id>  (353) 
1

>  <reference_id>  (353) 
122

>  <inspiration_ids>  (353) 
[94, 122]

>  <energy_score>  (353) 
644.4367064660172

>  <distance_score>  (353) 
15.144872852105872

>  <path>  (353) 
/opt/xchem-fragalysis-2/maxwin/BulkDock/SCRATCH/511015/C35263-P122/C35263-P122.minimised.mol

>  <scratch_subdir>  (353) 
/opt/xchem-fragalysis-2/maxwin/BulkDock/SCRATCH/511015/C35263-P122

>  <fragmenstein_runtime>  (353) 
16.753715991973877

>  <fragmenstein_outcome>  (353) 
too moved

>  <fragmenstein_mode>  (353) 
expansion

>  <fragmenstein_error>  (353) 


$$$$
C35264-P94
     RDKit          3D

 38 41  0  0  0  0  0  0  0  0999 V2000
   -2.1151  -14.3844   25.6195 C   0  0  0  0  0  0  0  0  0  0  0  0
   -2.3983  -15.4095   24.5007 C   0  0  0  0  0  0  0  0  0  0  0  0
   -1.2541  -15.1297   23.7110 O   0  0  0  0  0  0  0  0  0  0  0  0
   -0.7236  -15.1430   22.1812 C   0  0  0  0  0  0  0  0  0  0  0  0
   -0.5046  -16.5528   20.8558 C   0  0  0  0  0  0  0  0  0  0  0  0
   -0.7921  -16.3494   19.4952 N   0  0  0  0  0  0  0  0  0  0  0  0
   -0.0493  -17.2972   18.9245 C   0  0  0  0  0  0  0  0  0  0  0  0
    1.1589  -16.8120   18.2172 C   0  0  0  0  0  0  0  0  0  0  0  0
    1.2856  -15.8735   17.1965 C   0  0  0  0  0  0  0  0  0  0  0  0
    2.6530  -15.5188   17.1517 C   0  0  0  0  0  0  0  0  0  0  0  0
    3.3642  -16.1800   18.0654 N   0  0  0  0  0  0  0  0  0  0  0  0
    2.4510  -16.9870   18.6576 N   0  0  0  0  0  0  0  0  0  0  0  0
   -0.2011  -18.4042   19.8366 N   0  0  0  0  0  0  0  0  0  0  0  0
   -0.9858  -19.6464   19.7835 C   0  0  0  0  0  0  0  0  0  0  0  0
   -1.9321  -19.8251   18.7541 C   0  0  0  0  0  0  0  0  0  0  0  0
   -2.9241  -20.8249   18.8102 C   0  0  0  0  0  0  0  0  0  0  0  0
   -3.0157  -21.7141   19.8851 C   0  0  0  0  0  0  0  0  0  0  0  0
   -2.0759  -21.6075   20.9159 C   0  0  0  0  0  0  0  0  0  0  0  0
   -2.0233  -22.3365   22.0772 N   0  0  0  0  0  0  0  0  0  0  0  0
   -1.0109  -21.8296   22.7342 C   0  0  0  0  0  0  0  0  0  0  0  0
   -0.4392  -20.7706   22.0700 N   0  0  0  0  0  0  0  0  0  0  0  0
   -1.0786  -20.6121   20.8543 C   0  0  0  0  0  0  0  0  0  0  0  0
   -0.1009  -17.8320   21.0629 N   0  0  0  0  0  0  0  0  0  0  0  0
   -1.2314  -13.8390   25.3512 H   0  0  0  0  0  0  0  0  0  0  0  0
   -2.0715  -14.8331   26.6153 H   0  0  0  0  0  0  0  0  0  0  0  0
   -2.6456  -13.4184   25.7119 H   0  0  0  0  0  0  0  0  0  0  0  0
   -2.4776  -16.3818   24.9691 H   0  0  0  0  0  0  0  0  0  0  0  0
   -3.2979  -15.3131   23.8962 H   0  0  0  0  0  0  0  0  0  0  0  0
   -0.2557  -14.1815   22.2719 H   0  0  0  0  0  0  0  0  0  0  0  0
    0.3590  -15.3109   22.0428 H   0  0  0  0  0  0  0  0  0  0  0  0
    0.4753  -15.4467   16.6217 H   0  0  0  0  0  0  0  0  0  0  0  0
    3.1470  -14.8015   16.5087 H   0  0  0  0  0  0  0  0  0  0  0  0
    2.7640  -17.5943   19.4064 H   0  0  0  0  0  0  0  0  0  0  0  0
   -1.9658  -19.1287   17.9163 H   0  0  0  0  0  0  0  0  0  0  0  0
   -3.6529  -20.8954   18.0044 H   0  0  0  0  0  0  0  0  0  0  0  0
   -3.7951  -22.4662   19.9336 H   0  0  0  0  0  0  0  0  0  0  0  0
   -0.6456  -22.1685   23.6942 H   0  0  0  0  0  0  0  0  0  0  0  0
    0.3072  -20.1799   22.4253 H   0  0  0  0  0  0  0  0  0  0  0  0
  1  2  1  0
  2  3  1  0
  3  4  1  0
  4  5  1  0
  5  6  1  0
  6  7  2  0
  7  8  1  0
  8  9  2  0
  9 10  1  0
 10 11  2  0
 11 12  1  0
  7 13  1  0
 13 14  1  0
 14 15  2  0
 15 16  1  0
 16 17  2  0
 17 18  1  0
 18 19  1  0
 19 20  2  0
 20 21  1  0
 21 22  1  0
 13 23  1  0
 23  5  2  0
 12  8  1  0
 22 14  1  0
 22 18  2  0
  1 24  1  0
  1 25  1  0
  1 26  1  0
  2 27  1  0
  2 28  1  0
  4 29  1  0
  4 30  1  0
  9 31  1  0
 10 32  1  0
 12 33  1  0
 15 34  1  0
 16 35  1  0
 17 36  1  0
 20 37  1  0
 21 38  1  0
M  END
>  <Energy>  (354) 
299.18341843486655

>  <compound_id>  (354) 
35264

>  <target_id>  (354) 
1

>  <reference_id>  (354) 
94

>  <inspiration_ids>  (354) 
[94, 122]

>  <energy_score>  (354) 
175.71294815348506

>  <distance_score>  (354) 
16.088496998430525

>  <path>  (354) 
/opt/xchem-fragalysis-2/maxwin/BulkDock/SCRATCH/511015/C35264-P94/C35264-P94.minimised.mol

>  <scratch_subdir>  (354) 
/opt/xchem-fragalysis-2/maxwin/BulkDock/SCRATCH/511015/C35264-P94

>  <fragmenstein_runtime>  (354) 
25.923479080200195

>  <fragmenstein_outcome>  (354) 
too moved

>  <fragmenstein_mode>  (354) 
expansion

>  <fragmenstein_error>  (354) 


$$$$
C35264-P122
     RDKit          3D

 38 41  0  0  0  0  0  0  0  0999 V2000
   -2.2941  -14.6468   25.3704 C   0  0  0  0  0  0  0  0  0  0  0  0
   -3.4950  -15.5044   24.5065 C   0  0  0  0  0  0  0  0  0  0  0  0
   -5.2804  -15.4789   24.1133 O   0  0  0  0  0  0  0  0  0  0  0  0
   -7.0523  -15.0439   25.0261 C   0  0  0  0  0  0  0  0  0  0  0  0
   -8.3356  -15.8197   26.1827 C   0  0  0  0  0  0  0  0  0  0  0  0
   -9.2963  -15.1257   26.8500 N   0  0  0  0  0  0  0  0  0  0  0  0
   -8.5442  -14.7879   27.9205 C   0  0  0  0  0  0  0  0  0  0  0  0
   -7.9479  -13.3394   27.1978 C   0  0  0  0  0  0  0  0  0  0  0  0
   -6.7224  -13.0240   26.7629 C   0  0  0  0  0  0  0  0  0  0  0  0
   -6.5879  -12.0683   25.6965 C   0  0  0  0  0  0  0  0  0  0  0  0
   -7.5231  -11.1767   25.6788 N   0  0  0  0  0  0  0  0  0  0  0  0
   -8.4996  -11.9062   26.3920 N   0  0  0  0  0  0  0  0  0  0  0  0
   -7.9888  -16.4296   28.3492 N   0  0  0  0  0  0  0  0  0  0  0  0
   -7.6439  -17.8582   29.4776 C   0  0  0  0  0  0  0  0  0  0  0  0
   -8.5008  -19.2777   28.5717 C   0  0  0  0  0  0  0  0  0  0  0  0
   -9.9348  -20.3969   29.5733 C   0  0  0  0  0  0  0  0  0  0  0  0
  -10.0531  -20.2519   31.5031 C   0  0  0  0  0  0  0  0  0  0  0  0
   -8.9008  -19.0764   32.5043 C   0  0  0  0  0  0  0  0  0  0  0  0
   -8.5114  -18.6870   33.7664 N   0  0  0  0  0  0  0  0  0  0  0  0
   -7.4238  -17.9114   33.7215 C   0  0  0  0  0  0  0  0  0  0  0  0
   -6.8867  -17.4586   32.4979 N   0  0  0  0  0  0  0  0  0  0  0  0
   -7.5532  -18.0153   31.3859 C   0  0  0  0  0  0  0  0  0  0  0  0
   -8.1634  -16.9067   26.9903 N   0  0  0  0  0  0  0  0  0  0  0  0
   -1.4250  -14.8655   24.7504 H   0  0  0  0  0  0  0  0  0  0  0  0
   -2.1496  -14.9162   26.4151 H   0  0  0  0  0  0  0  0  0  0  0  0
   -2.3641  -13.5514   25.4716 H   0  0  0  0  0  0  0  0  0  0  0  0
   -3.1258  -16.4003   24.9871 H   0  0  0  0  0  0  0  0  0  0  0  0
   -3.2138  -15.3530   23.5066 H   0  0  0  0  0  0  0  0  0  0  0  0
   -7.1934  -14.7035   24.0858 H   0  0  0  0  0  0  0  0  0  0  0  0
   -7.6588  -15.9657   24.6800 H   0  0  0  0  0  0  0  0  0  0  0  0
   -6.1734  -13.8078   27.0790 H   0  0  0  0  0  0  0  0  0  0  0  0
   -5.9439  -12.0509   24.8166 H   0  0  0  0  0  0  0  0  0  0  0  0
   -9.4469  -11.8868   26.0114 H   0  0  0  0  0  0  0  0  0  0  0  0
   -9.0322  -18.6038   27.8412 H   0  0  0  0  0  0  0  0  0  0  0  0
  -10.5694  -21.1492   29.0789 H   0  0  0  0  0  0  0  0  0  0  0  0
  -10.7320  -20.8740   32.0828 H   0  0  0  0  0  0  0  0  0  0  0  0
   -6.9232  -17.5821   34.6224 H   0  0  0  0  0  0  0  0  0  0  0  0
   -6.0600  -16.8907   32.4264 H   0  0  0  0  0  0  0  0  0  0  0  0
  1  2  1  0
  2  3  1  0
  3  4  1  0
  4  5  1  0
  5  6  1  0
  6  7  2  0
  7  8  1  0
  8  9  2  0
  9 10  1  0
 10 11  2  0
 11 12  1  0
  7 13  1  0
 13 14  1  0
 14 15  2  0
 15 16  1  0
 16 17  2  0
 17 18  1  0
 18 19  1  0
 19 20  2  0
 20 21  1  0
 21 22  1  0
 13 23  1  0
 23  5  2  0
 12  8  1  0
 22 14  1  0
 22 18  2  0
  1 24  1  0
  1 25  1  0
  1 26  1  0
  2 27  1  0
  2 28  1  0
  4 29  1  0
  4 30  1  0
  9 31  1  0
 10 32  1  0
 12 33  1  0
 15 34  1  0
 16 35  1  0
 17 36  1  0
 20 37  1  0
 21 38  1  0
M  END
>  <Energy>  (355) 
1432.9044621278263

>  <compound_id>  (355) 
35264

>  <target_id>  (355) 
1

>  <reference_id>  (355) 
122

>  <inspiration_ids>  (355) 
[94, 122]

>  <energy_score>  (355) 
1309.4339918464598

>  <distance_score>  (355) 
16.812920748674063

>  <path>  (355) 
/opt/xchem-fragalysis-2/maxwin/BulkDock/SCRATCH/511015/C35264-P122/C35264-P122.minimised.mol

>  <scratch_subdir>  (355) 
/opt/xchem-fragalysis-2/maxwin/BulkDock/SCRATCH/511015/C35264-P122

>  <fragmenstein_runtime>  (355) 
25.986592531204224

>  <fragmenstein_outcome>  (355) 
too moved

>  <fragmenstein_mode>  (355) 
expansion

>  <fragmenstein_error>  (355) 


$$$$
C35265-P94
     RDKit          3D

 30 33  0  0  0  0  0  0  0  0999 V2000
    0.4696  -24.8626   22.7211 C   0  0  0  0  0  0  0  0  0  0  0  0
   -0.5159  -23.7653   22.8453 C   0  0  0  0  0  0  0  0  0  0  0  0
   -0.2636  -22.4815   22.9241 N   0  0  0  0  0  0  0  0  0  0  0  0
   -1.4743  -21.7428   22.9939 C   0  0  0  0  0  0  0  0  0  0  0  0
   -1.6284  -20.0738   22.9383 C   0  0  0  0  0  0  0  0  0  0  0  0
   -1.0964  -18.5528   21.6373 C   0  0  0  0  0  0  0  0  0  0  0  0
   -1.8159  -17.9907   20.4917 N   0  0  0  0  0  0  0  0  0  0  0  0
   -1.1699  -16.9343   19.7079 O   0  0  0  0  0  0  0  0  0  0  0  0
    0.4349  -16.5893   19.9331 C   0  0  0  0  0  0  0  0  0  0  0  0
    1.5776  -15.6929   18.5059 C   0  0  0  0  0  0  0  0  0  0  0  0
    2.5425  -14.6412   18.2930 C   0  0  0  0  0  0  0  0  0  0  0  0
    3.1739  -14.5897   17.0397 C   0  0  0  0  0  0  0  0  0  0  0  0
    3.0536  -15.7678   16.4642 N   0  0  0  0  0  0  0  0  0  0  0  0
    2.5798  -16.5268   17.4896 N   0  0  0  0  0  0  0  0  0  0  0  0
    0.3123  -17.5842   21.1011 N   0  0  0  0  0  0  0  0  0  0  0  0
   -2.7414  -20.5835   24.1255 C   0  0  0  0  0  0  0  0  0  0  0  0
   -3.6656  -21.6272   24.5221 C   0  0  0  0  0  0  0  0  0  0  0  0
   -3.7188  -22.6976   23.7247 C   0  0  0  0  0  0  0  0  0  0  0  0
   -2.4605  -22.7893   23.1755 C   0  0  0  0  0  0  0  0  0  0  0  0
   -1.8529  -23.9776   22.8469 N   0  0  0  0  0  0  0  0  0  0  0  0
    1.4900  -24.4703   22.7692 H   0  0  0  0  0  0  0  0  0  0  0  0
    0.3449  -25.5871   23.5318 H   0  0  0  0  0  0  0  0  0  0  0  0
    0.3487  -25.3826   21.7659 H   0  0  0  0  0  0  0  0  0  0  0  0
    3.0086  -14.1634   19.0897 H   0  0  0  0  0  0  0  0  0  0  0  0
    3.8397  -13.8461   16.6224 H   0  0  0  0  0  0  0  0  0  0  0  0
    2.5119  -17.5353   17.3921 H   0  0  0  0  0  0  0  0  0  0  0  0
   -2.7220  -20.0022   25.0954 H   0  0  0  0  0  0  0  0  0  0  0  0
   -4.3006  -21.5043   25.3942 H   0  0  0  0  0  0  0  0  0  0  0  0
   -4.3839  -23.5362   23.8789 H   0  0  0  0  0  0  0  0  0  0  0  0
   -2.3051  -24.8800   22.8433 H   0  0  0  0  0  0  0  0  0  0  0  0
  1  2  1  0
  2  3  2  0
  3  4  1  0
  4  5  2  0
  5  6  1  0
  6  7  2  0
  7  8  1  0
  8  9  1  0
  9 10  1  0
 10 11  2  0
 11 12  1  0
 12 13  2  0
 13 14  1  0
  9 15  2  0
  5 16  1  0
 16 17  2  0
 17 18  1  0
 18 19  2  0
 19 20  1  0
 20  2  1  0
 19  4  1  0
 15  6  1  0
 14 10  1  0
  1 21  1  0
  1 22  1  0
  1 23  1  0
 11 24  1  0
 12 25  1  0
 14 26  1  0
 16 27  1  0
 17 28  1  0
 18 29  1  0
 20 30  1  0
M  END
>  <Energy>  (356) 
729.48040642380136

>  <compound_id>  (356) 
35265

>  <target_id>  (356) 
1

>  <reference_id>  (356) 
94

>  <inspiration_ids>  (356) 
[94, 122]

>  <energy_score>  (356) 
671.3412874495735

>  <distance_score>  (356) 
14.607916397971856

>  <path>  (356) 
/opt/xchem-fragalysis-2/maxwin/BulkDock/SCRATCH/511015/C35265-P94/C35265-P94.minimised.mol

>  <scratch_subdir>  (356) 
/opt/xchem-fragalysis-2/maxwin/BulkDock/SCRATCH/511015/C35265-P94

>  <fragmenstein_runtime>  (356) 
15.075644493103027

>  <fragmenstein_outcome>  (356) 
too moved

>  <fragmenstein_mode>  (356) 
expansion

>  <fragmenstein_error>  (356) 


$$$$
C35265-P122
     RDKit          3D

 30 33  0  0  0  0  0  0  0  0999 V2000
   -4.9766  -22.8498   20.7384 C   0  0  0  0  0  0  0  0  0  0  0  0
   -5.5537  -21.5457   20.3430 C   0  0  0  0  0  0  0  0  0  0  0  0
   -5.0742  -20.7115   19.4407 N   0  0  0  0  0  0  0  0  0  0  0  0
   -5.9069  -19.6045   19.4127 C   0  0  0  0  0  0  0  0  0  0  0  0
   -5.8737  -18.3965   18.6297 C   0  0  0  0  0  0  0  0  0  0  0  0
   -4.7907  -18.0043   17.6297 C   0  0  0  0  0  0  0  0  0  0  0  0
   -3.8498  -18.8330   17.1538 N   0  0  0  0  0  0  0  0  0  0  0  0
   -3.0390  -18.0471   16.3257 O   0  0  0  0  0  0  0  0  0  0  0  0
   -3.5065  -16.7454   16.3288 C   0  0  0  0  0  0  0  0  0  0  0  0
   -2.7643  -15.6395   15.6717 C   0  0  0  0  0  0  0  0  0  0  0  0
   -1.6349  -15.6488   14.8526 C   0  0  0  0  0  0  0  0  0  0  0  0
   -1.2319  -14.3011   14.6980 C   0  0  0  0  0  0  0  0  0  0  0  0
   -2.0709  -13.4691   15.3131 N   0  0  0  0  0  0  0  0  0  0  0  0
   -3.0206  -14.2956   15.8149 N   0  0  0  0  0  0  0  0  0  0  0  0
   -4.6256  -16.6881   17.0647 N   0  0  0  0  0  0  0  0  0  0  0  0
   -6.9756  -17.5341   18.8502 C   0  0  0  0  0  0  0  0  0  0  0  0
   -7.9817  -17.7753   19.8070 C   0  0  0  0  0  0  0  0  0  0  0  0
   -7.9734  -18.9166   20.5995 C   0  0  0  0  0  0  0  0  0  0  0  0
   -6.9382  -19.8131   20.3538 C   0  0  0  0  0  0  0  0  0  0  0  0
   -6.6761  -21.0329   20.9307 N   0  0  0  0  0  0  0  0  0  0  0  0
   -4.0461  -23.0400   20.1947 H   0  0  0  0  0  0  0  0  0  0  0  0
   -4.7536  -22.8661   21.8097 H   0  0  0  0  0  0  0  0  0  0  0  0
   -5.6749  -23.6624   20.5154 H   0  0  0  0  0  0  0  0  0  0  0  0
   -1.1205  -16.5277   14.4872 H   0  0  0  0  0  0  0  0  0  0  0  0
   -0.3705  -13.9053   14.1749 H   0  0  0  0  0  0  0  0  0  0  0  0
   -3.8185  -13.8763   16.2742 H   0  0  0  0  0  0  0  0  0  0  0  0
   -7.0540  -16.6321   18.2443 H   0  0  0  0  0  0  0  0  0  0  0  0
   -8.7862  -17.0518   19.9219 H   0  0  0  0  0  0  0  0  0  0  0  0
   -8.7439  -19.1077   21.3362 H   0  0  0  0  0  0  0  0  0  0  0  0
   -7.1994  -21.4630   21.6772 H   0  0  0  0  0  0  0  0  0  0  0  0
  1  2  1  0
  2  3  2  0
  3  4  1  0
  4  5  2  0
  5  6  1  0
  6  7  2  0
  7  8  1  0
  8  9  1  0
  9 10  1  0
 10 11  2  0
 11 12  1  0
 12 13  2  0
 13 14  1  0
  9 15  2  0
  5 16  1  0
 16 17  2  0
 17 18  1  0
 18 19  2  0
 19 20  1  0
 20  2  1  0
 19  4  1  0
 15  6  1  0
 14 10  1  0
  1 21  1  0
  1 22  1  0
  1 23  1  0
 11 24  1  0
 12 25  1  0
 14 26  1  0
 16 27  1  0
 17 28  1  0
 18 29  1  0
 20 30  1  0
M  END
>  <Energy>  (357) 
49.265921984252302

>  <compound_id>  (357) 
35265

>  <target_id>  (357) 
1

>  <reference_id>  (357) 
122

>  <inspiration_ids>  (357) 
[94, 122]

>  <energy_score>  (357) 
-8.873196989966857

>  <distance_score>  (357) 
16.02478792582974

>  <path>  (357) 
/opt/xchem-fragalysis-2/maxwin/BulkDock/SCRATCH/511015/C35265-P122/C35265-P122.minimised.mol

>  <scratch_subdir>  (357) 
/opt/xchem-fragalysis-2/maxwin/BulkDock/SCRATCH/511015/C35265-P122

>  <fragmenstein_runtime>  (357) 
17.56746196746826

>  <fragmenstein_outcome>  (357) 
too moved

>  <fragmenstein_mode>  (357) 
expansion

>  <fragmenstein_error>  (357) 


$$$$
C35266-P94
     RDKit          3D

 39 41  0  0  0  0  0  0  0  0999 V2000
   -6.1805  -16.7827   29.9901 C   0  0  0  0  0  0  0  0  0  0  0  0
   -4.6380  -16.9053   30.0717 C   0  0  0  0  0  0  0  0  0  0  0  0
   -4.3772  -17.9091   31.2271 C   0  0  0  0  0  0  0  0  0  0  0  0
   -3.9852  -17.2685   28.7626 N   0  0  0  0  0  0  0  0  0  0  0  0
   -3.9707  -18.6809   28.4550 C   0  0  0  0  0  0  0  0  0  0  0  0
   -2.8872  -19.0113   27.7595 N   0  0  0  0  0  0  0  0  0  0  0  0
   -2.4740  -17.7750   27.1828 C   0  0  0  0  0  0  0  0  0  0  0  0
   -2.2954  -17.4679   25.8151 C   0  0  0  0  0  0  0  0  0  0  0  0
   -2.5616  -16.0192   24.9913 C   0  0  0  0  0  0  0  0  0  0  0  0
   -2.0578  -14.8451   25.4788 C   0  0  0  0  0  0  0  0  0  0  0  0
   -0.6948  -14.1782   24.1783 C   0  0  0  0  0  0  0  0  0  0  0  0
   -0.1178  -12.7136   22.7502 N   0  0  0  0  0  0  0  0  0  0  0  0
   -0.8302  -10.7288   21.7082 S   0  0  0  0  0  0  0  0  0  0  0  0
   -1.7809   -9.9046   22.4727 O   0  0  0  0  0  0  0  0  0  0  0  0
   -1.4829  -11.2202   20.4973 O   0  0  0  0  0  0  0  0  0  0  0  0
    0.2503   -9.1260   21.3518 C   0  0  0  0  0  0  0  0  0  0  0  0
   -0.1050   -7.7815   21.5477 C   0  0  0  0  0  0  0  0  0  0  0  0
    0.9858   -6.9841   21.1430 C   0  0  0  0  0  0  0  0  0  0  0  0
    1.9978   -7.7225   20.7048 N   0  0  0  0  0  0  0  0  0  0  0  0
    1.5010   -8.9814   20.7986 N   0  0  0  0  0  0  0  0  0  0  0  0
   -2.1116  -15.2254   27.1973 C   0  0  0  0  0  0  0  0  0  0  0  0
   -2.8720  -16.6298   27.8417 C   0  0  0  0  0  0  0  0  0  0  0  0
   -6.6171  -16.6605   30.9871 H   0  0  0  0  0  0  0  0  0  0  0  0
   -6.6232  -17.6676   29.5233 H   0  0  0  0  0  0  0  0  0  0  0  0
   -6.4871  -15.9087   29.4105 H   0  0  0  0  0  0  0  0  0  0  0  0
   -4.1693  -15.9731   30.4004 H   0  0  0  0  0  0  0  0  0  0  0  0
   -4.9287  -18.8447   31.0891 H   0  0  0  0  0  0  0  0  0  0  0  0
   -3.3280  -18.1695   31.3534 H   0  0  0  0  0  0  0  0  0  0  0  0
   -4.7150  -17.4779   32.1770 H   0  0  0  0  0  0  0  0  0  0  0  0
   -4.6693  -19.3589   28.9158 H   0  0  0  0  0  0  0  0  0  0  0  0
   -2.1395  -18.4286   25.3944 H   0  0  0  0  0  0  0  0  0  0  0  0
   -2.9553  -15.8402   24.0159 H   0  0  0  0  0  0  0  0  0  0  0  0
   -1.1472  -14.8018   23.4006 H   0  0  0  0  0  0  0  0  0  0  0  0
   -1.1585  -13.5202   24.9841 H   0  0  0  0  0  0  0  0  0  0  0  0
    0.5923  -12.0885   23.2633 H   0  0  0  0  0  0  0  0  0  0  0  0
   -1.0551   -7.4436   21.9362 H   0  0  0  0  0  0  0  0  0  0  0  0
    1.0760   -5.9062   21.1517 H   0  0  0  0  0  0  0  0  0  0  0  0
    2.0905   -9.7337   20.4740 H   0  0  0  0  0  0  0  0  0  0  0  0
   -1.3913  -14.8754   27.8999 H   0  0  0  0  0  0  0  0  0  0  0  0
  1  2  1  0
  2  3  1  0
  2  4  1  0
  4  5  1  0
  5  6  2  0
  6  7  1  0
  7  8  2  0
  8  9  1  0
  9 10  2  0
 10 11  1  0
 11 12  1  0
 12 13  1  0
 13 14  2  0
 13 15  2  0
 13 16  1  0
 16 17  2  0
 17 18  1  0
 18 19  2  0
 19 20  1  0
 10 21  1  0
 21 22  2  0
 22  4  1  0
 22  7  1  0
 20 16  1  0
  1 23  1  0
  1 24  1  0
  1 25  1  0
  2 26  1  0
  3 27  1  0
  3 28  1  0
  3 29  1  0
  5 30  1  0
  8 31  1  0
  9 32  1  0
 11 33  1  0
 11 34  1  0
 12 35  1  0
 17 36  1  0
 18 37  1  0
 20 38  1  0
 21 39  1  0
M  END
>  <Energy>  (358) 
582.92051169966987

>  <compound_id>  (358) 
35266

>  <target_id>  (358) 
1

>  <reference_id>  (358) 
94

>  <inspiration_ids>  (358) 
[94, 122]

>  <energy_score>  (358) 
630.509098472524

>  <distance_score>  (358) 
12.881388517900273

>  <path>  (358) 
/opt/xchem-fragalysis-2/maxwin/BulkDock/SCRATCH/511015/C35266-P94/C35266-P94.minimised.mol

>  <scratch_subdir>  (358) 
/opt/xchem-fragalysis-2/maxwin/BulkDock/SCRATCH/511015/C35266-P94

>  <fragmenstein_runtime>  (358) 
20.423205137252808

>  <fragmenstein_outcome>  (358) 
too moved

>  <fragmenstein_mode>  (358) 
expansion

>  <fragmenstein_error>  (358) 


$$$$
C35266-P122
     RDKit          3D

 39 41  0  0  0  0  0  0  0  0999 V2000
   -9.1273  -23.7818   27.5181 C   0  0  0  0  0  0  0  0  0  0  0  0
   -8.2223  -22.4665   27.9473 C   0  0  0  0  0  0  0  0  0  0  0  0
  -10.0674  -21.9069   28.3332 C   0  0  0  0  0  0  0  0  0  0  0  0
   -6.7534  -21.9401   27.0529 N   0  0  0  0  0  0  0  0  0  0  0  0
   -6.1001  -22.7410   26.1471 C   0  0  0  0  0  0  0  0  0  0  0  0
   -4.8059  -22.8036   26.3793 N   0  0  0  0  0  0  0  0  0  0  0  0
   -4.4512  -21.6531   27.0265 C   0  0  0  0  0  0  0  0  0  0  0  0
   -3.1674  -21.2363   27.4983 C   0  0  0  0  0  0  0  0  0  0  0  0
   -2.7397  -19.8958   27.8724 C   0  0  0  0  0  0  0  0  0  0  0  0
   -3.6055  -18.7852   27.9526 C   0  0  0  0  0  0  0  0  0  0  0  0
   -2.7461  -17.1792   27.1951 C   0  0  0  0  0  0  0  0  0  0  0  0
   -2.0605  -15.3152   27.2660 N   0  0  0  0  0  0  0  0  0  0  0  0
   -1.4685  -14.0402   25.4786 S   0  0  0  0  0  0  0  0  0  0  0  0
   -1.5579  -15.0979   24.4834 O   0  0  0  0  0  0  0  0  0  0  0  0
   -2.3189  -12.8437   25.5135 O   0  0  0  0  0  0  0  0  0  0  0  0
    0.9217  -13.5646   25.6497 C   0  0  0  0  0  0  0  0  0  0  0  0
    2.0012  -12.9669   24.4547 C   0  0  0  0  0  0  0  0  0  0  0  0
    3.3480  -13.5415   24.3258 C   0  0  0  0  0  0  0  0  0  0  0  0
    3.6073  -14.1338   25.5260 N   0  0  0  0  0  0  0  0  0  0  0  0
    2.1390  -13.8418   26.4095 N   0  0  0  0  0  0  0  0  0  0  0  0
   -5.1348  -19.3480   27.7743 C   0  0  0  0  0  0  0  0  0  0  0  0
   -5.5490  -20.8061   27.1790 C   0  0  0  0  0  0  0  0  0  0  0  0
   -8.9276  -24.0744   26.5216 H   0  0  0  0  0  0  0  0  0  0  0  0
   -9.0576  -24.5648   28.2886 H   0  0  0  0  0  0  0  0  0  0  0  0
  -10.2180  -23.7395   27.3787 H   0  0  0  0  0  0  0  0  0  0  0  0
   -8.1789  -21.4241   27.5406 H   0  0  0  0  0  0  0  0  0  0  0  0
  -10.2276  -21.1407   29.0971 H   0  0  0  0  0  0  0  0  0  0  0  0
  -10.7159  -21.7165   27.4686 H   0  0  0  0  0  0  0  0  0  0  0  0
  -10.6403  -22.7215   28.8256 H   0  0  0  0  0  0  0  0  0  0  0  0
   -6.6167  -23.3203   25.3981 H   0  0  0  0  0  0  0  0  0  0  0  0
   -2.4077  -22.0112   27.4786 H   0  0  0  0  0  0  0  0  0  0  0  0
   -1.6709  -19.7370   27.9705 H   0  0  0  0  0  0  0  0  0  0  0  0
   -1.7441  -17.6044   27.3164 H   0  0  0  0  0  0  0  0  0  0  0  0
   -3.2927  -16.7806   28.0681 H   0  0  0  0  0  0  0  0  0  0  0  0
   -1.4052  -15.1156   28.0213 H   0  0  0  0  0  0  0  0  0  0  0  0
    1.7881  -12.1299   23.8099 H   0  0  0  0  0  0  0  0  0  0  0  0
    4.1161  -13.4064   23.5764 H   0  0  0  0  0  0  0  0  0  0  0  0
    2.3773  -14.1409   27.3329 H   0  0  0  0  0  0  0  0  0  0  0  0
   -5.9665  -18.6696   27.9453 H   0  0  0  0  0  0  0  0  0  0  0  0
  1  2  1  0
  2  3  1  0
  2  4  1  0
  4  5  1  0
  5  6  2  0
  6  7  1  0
  7  8  2  0
  8  9  1  0
  9 10  2  0
 10 11  1  0
 11 12  1  0
 12 13  1  0
 13 14  2  0
 13 15  2  0
 13 16  1  0
 16 17  2  0
 17 18  1  0
 18 19  2  0
 19 20  1  0
 10 21  1  0
 21 22  2  0
 22  4  1  0
 22  7  1  0
 20 16  1  0
  1 23  1  0
  1 24  1  0
  1 25  1  0
  2 26  1  0
  3 27  1  0
  3 28  1  0
  3 29  1  0
  5 30  1  0
  8 31  1  0
  9 32  1  0
 11 33  1  0
 11 34  1  0
 12 35  1  0
 17 36  1  0
 18 37  1  0
 20 38  1  0
 21 39  1  0
M  END
>  <Energy>  (359) 
727.29870928600326

>  <compound_id>  (359) 
35266

>  <target_id>  (359) 
1

>  <reference_id>  (359) 
122

>  <inspiration_ids>  (359) 
[94, 122]

>  <energy_score>  (359) 
774.8872960588628

>  <distance_score>  (359) 
12.975247686004696

>  <path>  (359) 
/opt/xchem-fragalysis-2/maxwin/BulkDock/SCRATCH/511015/C35266-P122/C35266-P122.minimised.mol

>  <scratch_subdir>  (359) 
/opt/xchem-fragalysis-2/maxwin/BulkDock/SCRATCH/511015/C35266-P122

>  <fragmenstein_runtime>  (359) 
16.652162790298462

>  <fragmenstein_outcome>  (359) 
too moved

>  <fragmenstein_mode>  (359) 
expansion

>  <fragmenstein_error>  (359) 


$$$$
C35267-P94
     RDKit          3D

 41 43  0  0  0  0  0  0  0  0999 V2000
   -4.6078  -22.8610   25.3518 C   0  0  0  0  0  0  0  0  0  0  0  0
   -4.6816  -22.0584   26.6361 C   0  0  0  0  0  0  0  0  0  0  0  0
   -5.6945  -20.9599   26.4730 C   0  0  0  0  0  0  0  0  0  0  0  0
   -3.3912  -21.5420   27.0387 N   0  0  0  0  0  0  0  0  0  0  0  0
   -2.6411  -22.0447   28.0733 C   0  0  0  0  0  0  0  0  0  0  0  0
   -1.5464  -21.3314   28.2540 N   0  0  0  0  0  0  0  0  0  0  0  0
   -1.6388  -20.2715   27.3432 C   0  0  0  0  0  0  0  0  0  0  0  0
   -0.9313  -18.9054   27.0471 C   0  0  0  0  0  0  0  0  0  0  0  0
   -1.6951  -17.7557   26.7438 C   0  0  0  0  0  0  0  0  0  0  0  0
   -2.1899  -17.7389   25.5113 C   0  0  0  0  0  0  0  0  0  0  0  0
   -2.3545  -15.9530   24.4958 C   0  0  0  0  0  0  0  0  0  0  0  0
   -1.0722  -15.1625   23.1916 N   0  0  0  0  0  0  0  0  0  0  0  0
   -0.0984  -15.9829   21.6985 C   0  0  0  0  0  0  0  0  0  0  0  0
   -0.2929  -17.1542   21.3239 O   0  0  0  0  0  0  0  0  0  0  0  0
    1.4843  -15.2055   20.6701 C   0  0  0  0  0  0  0  0  0  0  0  0
    2.7355  -14.7782   19.2686 C   0  0  0  0  0  0  0  0  0  0  0  0
    2.7620  -14.5910   17.8781 C   0  0  0  0  0  0  0  0  0  0  0  0
    4.0325  -14.0522   17.5436 C   0  0  0  0  0  0  0  0  0  0  0  0
    4.7964  -13.8742   18.6131 N   0  0  0  0  0  0  0  0  0  0  0  0
    4.0503  -14.3614   19.6177 N   0  0  0  0  0  0  0  0  0  0  0  0
   -2.6851  -19.4920   25.5339 C   0  0  0  0  0  0  0  0  0  0  0  0
   -2.7499  -20.4249   26.6044 C   0  0  0  0  0  0  0  0  0  0  0  0
   -3.9051  -23.6941   25.4501 H   0  0  0  0  0  0  0  0  0  0  0  0
   -4.2421  -22.2501   24.5181 H   0  0  0  0  0  0  0  0  0  0  0  0
   -5.5881  -23.2473   25.0592 H   0  0  0  0  0  0  0  0  0  0  0  0
   -5.0146  -22.7213   27.4380 H   0  0  0  0  0  0  0  0  0  0  0  0
   -5.5349  -20.1213   27.1523 H   0  0  0  0  0  0  0  0  0  0  0  0
   -6.6675  -21.3974   26.6914 H   0  0  0  0  0  0  0  0  0  0  0  0
   -5.6916  -20.5565   25.4570 H   0  0  0  0  0  0  0  0  0  0  0  0
   -2.9200  -22.9216   28.6406 H   0  0  0  0  0  0  0  0  0  0  0  0
   -0.0177  -18.9164   26.4919 H   0  0  0  0  0  0  0  0  0  0  0  0
   -2.3879  -17.2686   27.4184 H   0  0  0  0  0  0  0  0  0  0  0  0
   -3.3252  -15.6961   24.0913 H   0  0  0  0  0  0  0  0  0  0  0  0
   -2.2317  -15.1945   25.2735 H   0  0  0  0  0  0  0  0  0  0  0  0
   -0.6886  -14.2338   23.3751 H   0  0  0  0  0  0  0  0  0  0  0  0
    2.4715  -14.8269   21.0443 H   0  0  0  0  0  0  0  0  0  0  0  0
    1.1019  -16.0274   20.0581 H   0  0  0  0  0  0  0  0  0  0  0  0
    1.9816  -14.7415   17.1599 H   0  0  0  0  0  0  0  0  0  0  0  0
    4.4053  -13.7667   16.5678 H   0  0  0  0  0  0  0  0  0  0  0  0
    4.4415  -14.3043   20.5486 H   0  0  0  0  0  0  0  0  0  0  0  0
   -3.4138  -19.9505   24.8379 H   0  0  0  0  0  0  0  0  0  0  0  0
  1  2  1  0
  2  3  1  0
  2  4  1  0
  4  5  1  0
  5  6  2  0
  6  7  1  0
  7  8  2  0
  8  9  1  0
  9 10  2  0
 10 11  1  0
 11 12  1  0
 12 13  1  0
 13 14  2  0
 13 15  1  0
 15 16  1  0
 16 17  2  0
 17 18  1  0
 18 19  2  0
 19 20  1  0
 10 21  1  0
 21 22  2  0
 22  4  1  0
 22  7  1  0
 20 16  1  0
  1 23  1  0
  1 24  1  0
  1 25  1  0
  2 26  1  0
  3 27  1  0
  3 28  1  0
  3 29  1  0
  5 30  1  0
  8 31  1  0
  9 32  1  0
 11 33  1  0
 11 34  1  0
 12 35  1  0
 15 36  1  0
 15 37  1  0
 17 38  1  0
 18 39  1  0
 20 40  1  0
 21 41  1  0
M  END
>  <Energy>  (360) 
755.04844839735131

>  <compound_id>  (360) 
35267

>  <target_id>  (360) 
1

>  <reference_id>  (360) 
94

>  <inspiration_ids>  (360) 
[94, 122]

>  <energy_score>  (360) 
701.9376812222233

>  <distance_score>  (360) 
13.024321690164312

>  <path>  (360) 
/opt/xchem-fragalysis-2/maxwin/BulkDock/SCRATCH/511015/C35267-P94/C35267-P94.minimised.mol

>  <scratch_subdir>  (360) 
/opt/xchem-fragalysis-2/maxwin/BulkDock/SCRATCH/511015/C35267-P94

>  <fragmenstein_runtime>  (360) 
20.71130132675171

>  <fragmenstein_outcome>  (360) 
too moved

>  <fragmenstein_mode>  (360) 
expansion

>  <fragmenstein_error>  (360) 


$$$$
C35267-P122
     RDKit          3D

 41 43  0  0  0  0  0  0  0  0999 V2000
   -2.6104  -21.0357   28.0221 C   0  0  0  0  0  0  0  0  0  0  0  0
   -3.1869  -19.8948   27.0684 C   0  0  0  0  0  0  0  0  0  0  0  0
   -3.4802  -20.6892   25.7224 C   0  0  0  0  0  0  0  0  0  0  0  0
   -2.4004  -18.2845   26.9917 N   0  0  0  0  0  0  0  0  0  0  0  0
   -1.1806  -18.3477   26.5902 C   0  0  0  0  0  0  0  0  0  0  0  0
   -1.6998  -18.0297   25.4678 N   0  0  0  0  0  0  0  0  0  0  0  0
   -2.6000  -16.9328   25.6477 C   0  0  0  0  0  0  0  0  0  0  0  0
   -2.6431  -15.7305   24.7461 C   0  0  0  0  0  0  0  0  0  0  0  0
   -1.4875  -14.9883   24.5266 C   0  0  0  0  0  0  0  0  0  0  0  0
   -1.2612  -13.9916   25.4521 C   0  0  0  0  0  0  0  0  0  0  0  0
    0.8114  -13.5886   25.5290 C   0  0  0  0  0  0  0  0  0  0  0  0
    1.8618  -13.6764   23.8620 N   0  0  0  0  0  0  0  0  0  0  0  0
    2.6652  -12.6279   23.1239 C   0  0  0  0  0  0  0  0  0  0  0  0
    2.7847  -11.5049   23.3325 O   0  0  0  0  0  0  0  0  0  0  0  0
    3.5504  -13.1173   21.4638 C   0  0  0  0  0  0  0  0  0  0  0  0
    4.9123  -12.6920   20.3869 C   0  0  0  0  0  0  0  0  0  0  0  0
    5.4157  -13.3297   19.2657 C   0  0  0  0  0  0  0  0  0  0  0  0
    6.4279  -12.4797   18.7559 C   0  0  0  0  0  0  0  0  0  0  0  0
    6.5763  -11.3703   19.4770 N   0  0  0  0  0  0  0  0  0  0  0  0
    5.6807  -11.5169   20.4660 N   0  0  0  0  0  0  0  0  0  0  0  0
   -1.9099  -14.9793   26.8736 C   0  0  0  0  0  0  0  0  0  0  0  0
   -2.5434  -16.6880   27.1030 C   0  0  0  0  0  0  0  0  0  0  0  0
   -2.9314  -21.0027   29.0635 H   0  0  0  0  0  0  0  0  0  0  0  0
   -2.9383  -22.0355   27.7168 H   0  0  0  0  0  0  0  0  0  0  0  0
   -1.5264  -21.0481   28.0209 H   0  0  0  0  0  0  0  0  0  0  0  0
   -4.1990  -19.6551   27.3909 H   0  0  0  0  0  0  0  0  0  0  0  0
   -3.5240  -21.7732   25.8773 H   0  0  0  0  0  0  0  0  0  0  0  0
   -2.7829  -20.5469   24.9154 H   0  0  0  0  0  0  0  0  0  0  0  0
   -4.4915  -20.4758   25.3606 H   0  0  0  0  0  0  0  0  0  0  0  0
   -0.3407  -18.9103   26.8694 H   0  0  0  0  0  0  0  0  0  0  0  0
   -3.4004  -15.5717   23.9968 H   0  0  0  0  0  0  0  0  0  0  0  0
   -1.1183  -14.8205   23.5281 H   0  0  0  0  0  0  0  0  0  0  0  0
    1.0205  -12.5995   25.9850 H   0  0  0  0  0  0  0  0  0  0  0  0
    1.3255  -14.1033   26.3228 H   0  0  0  0  0  0  0  0  0  0  0  0
    1.9122  -14.5469   23.3641 H   0  0  0  0  0  0  0  0  0  0  0  0
    4.0453  -12.2491   21.8564 H   0  0  0  0  0  0  0  0  0  0  0  0
    3.5653  -14.1998   21.3264 H   0  0  0  0  0  0  0  0  0  0  0  0
    5.0869  -14.2740   18.8558 H   0  0  0  0  0  0  0  0  0  0  0  0
    7.0513  -12.6282   17.8829 H   0  0  0  0  0  0  0  0  0  0  0  0
    5.5966  -10.7692   21.1496 H   0  0  0  0  0  0  0  0  0  0  0  0
   -2.7258  -14.2986   26.8023 H   0  0  0  0  0  0  0  0  0  0  0  0
  1  2  1  0
  2  3  1  0
  2  4  1  0
  4  5  1  0
  5  6  2  0
  6  7  1  0
  7  8  2  0
  8  9  1  0
  9 10  2  0
 10 11  1  0
 11 12  1  0
 12 13  1  0
 13 14  2  0
 13 15  1  0
 15 16  1  0
 16 17  2  0
 17 18  1  0
 18 19  2  0
 19 20  1  0
 10 21  1  0
 21 22  2  0
 22  4  1  0
 22  7  1  0
 20 16  1  0
  1 23  1  0
  1 24  1  0
  1 25  1  0
  2 26  1  0
  3 27  1  0
  3 28  1  0
  3 29  1  0
  5 30  1  0
  8 31  1  0
  9 32  1  0
 11 33  1  0
 11 34  1  0
 12 35  1  0
 15 36  1  0
 15 37  1  0
 17 38  1  0
 18 39  1  0
 20 40  1  0
 21 41  1  0
M  END
>  <Energy>  (361) 
796.96332547571978

>  <compound_id>  (361) 
35267

>  <target_id>  (361) 
1

>  <reference_id>  (361) 
122

>  <inspiration_ids>  (361) 
[94, 122]

>  <energy_score>  (361) 
743.8525583005871

>  <distance_score>  (361) 
13.288083167950058

>  <path>  (361) 
/opt/xchem-fragalysis-2/maxwin/BulkDock/SCRATCH/511015/C35267-P122/C35267-P122.minimised.mol

>  <scratch_subdir>  (361) 
/opt/xchem-fragalysis-2/maxwin/BulkDock/SCRATCH/511015/C35267-P122

>  <fragmenstein_runtime>  (361) 
37.057636737823486

>  <fragmenstein_outcome>  (361) 
too moved

>  <fragmenstein_mode>  (361) 
expansion

>  <fragmenstein_error>  (361) 


$$$$
C35268-P94
     RDKit          3D

 44 46  0  0  0  0  0  0  0  0999 V2000
  -10.3792  -22.7578   27.7285 C   0  0  0  0  0  0  0  0  0  0  0  0
   -8.8050  -23.4977   27.1943 C   0  0  0  0  0  0  0  0  0  0  0  0
   -9.4676  -25.0017   27.6280 C   0  0  0  0  0  0  0  0  0  0  0  0
   -7.2883  -22.9844   26.1209 N   0  0  0  0  0  0  0  0  0  0  0  0
   -6.0792  -22.6713   26.7584 C   0  0  0  0  0  0  0  0  0  0  0  0
   -4.9759  -22.7680   26.0560 N   0  0  0  0  0  0  0  0  0  0  0  0
   -5.2631  -22.8813   24.7112 C   0  0  0  0  0  0  0  0  0  0  0  0
   -4.3127  -22.7813   23.5858 C   0  0  0  0  0  0  0  0  0  0  0  0
   -4.4558  -22.2837   22.1725 C   0  0  0  0  0  0  0  0  0  0  0  0
   -5.6195  -21.6378   21.7358 C   0  0  0  0  0  0  0  0  0  0  0  0
   -5.4347  -20.1255   20.4739 C   0  0  0  0  0  0  0  0  0  0  0  0
   -4.1114  -19.0174   19.5722 N   0  0  0  0  0  0  0  0  0  0  0  0
   -3.4780  -17.3662   19.9643 C   0  0  0  0  0  0  0  0  0  0  0  0
   -3.7507  -16.6946   20.9696 O   0  0  0  0  0  0  0  0  0  0  0  0
   -2.3186  -16.5780   19.0717 C   0  0  0  0  0  0  0  0  0  0  0  0
   -1.7521  -14.7232   18.6415 C   0  0  0  0  0  0  0  0  0  0  0  0
   -2.0295  -12.7689   18.7757 C   0  0  0  0  0  0  0  0  0  0  0  0
   -2.3971  -11.5846   18.1726 C   0  0  0  0  0  0  0  0  0  0  0  0
   -2.3511  -10.4706   19.0422 C   0  0  0  0  0  0  0  0  0  0  0  0
   -2.1792  -10.9024   20.2682 N   0  0  0  0  0  0  0  0  0  0  0  0
   -1.9992  -12.1931   20.0525 N   0  0  0  0  0  0  0  0  0  0  0  0
   -6.7789  -22.0995   22.8666 C   0  0  0  0  0  0  0  0  0  0  0  0
   -6.6546  -22.8734   24.4597 C   0  0  0  0  0  0  0  0  0  0  0  0
  -10.2749  -21.7265   28.0553 H   0  0  0  0  0  0  0  0  0  0  0  0
  -10.7915  -23.2638   28.6065 H   0  0  0  0  0  0  0  0  0  0  0  0
  -11.1234  -22.8663   26.9312 H   0  0  0  0  0  0  0  0  0  0  0  0
   -8.2690  -23.0685   28.0279 H   0  0  0  0  0  0  0  0  0  0  0  0
  -10.3012  -25.2304   26.9523 H   0  0  0  0  0  0  0  0  0  0  0  0
   -8.8702  -25.9040   27.7784 H   0  0  0  0  0  0  0  0  0  0  0  0
   -9.8882  -24.9193   28.6387 H   0  0  0  0  0  0  0  0  0  0  0  0
   -6.0614  -22.5717   27.8090 H   0  0  0  0  0  0  0  0  0  0  0  0
   -3.2730  -22.9432   23.8907 H   0  0  0  0  0  0  0  0  0  0  0  0
   -3.5343  -22.1735   21.6014 H   0  0  0  0  0  0  0  0  0  0  0  0
   -5.8615  -20.6136   19.5882 H   0  0  0  0  0  0  0  0  0  0  0  0
   -6.1528  -19.3838   20.8532 H   0  0  0  0  0  0  0  0  0  0  0  0
   -3.6593  -19.3615   18.7324 H   0  0  0  0  0  0  0  0  0  0  0  0
   -1.5812  -16.6069   19.9049 H   0  0  0  0  0  0  0  0  0  0  0  0
   -1.8210  -17.4360   18.6037 H   0  0  0  0  0  0  0  0  0  0  0  0
   -2.1312  -14.6391   17.6061 H   0  0  0  0  0  0  0  0  0  0  0  0
   -1.9318  -14.7273   19.7257 H   0  0  0  0  0  0  0  0  0  0  0  0
   -2.7749  -11.3891   17.2378 H   0  0  0  0  0  0  0  0  0  0  0  0
   -2.5112   -9.4198   18.8474 H   0  0  0  0  0  0  0  0  0  0  0  0
   -1.8738  -12.7540   20.8423 H   0  0  0  0  0  0  0  0  0  0  0  0
   -7.7914  -21.7510   22.6246 H   0  0  0  0  0  0  0  0  0  0  0  0
  1  2  1  0
  2  3  1  0
  2  4  1  0
  4  5  1  0
  5  6  2  0
  6  7  1  0
  7  8  2  0
  8  9  1  0
  9 10  2  0
 10 11  1  0
 11 12  1  0
 12 13  1  0
 13 14  2  0
 13 15  1  0
 15 16  1  0
 16 17  1  0
 17 18  2  0
 18 19  1  0
 19 20  2  0
 20 21  1  0
 10 22  1  0
 22 23  2  0
 23  4  1  0
 23  7  1  0
 21 17  1  0
  1 24  1  0
  1 25  1  0
  1 26  1  0
  2 27  1  0
  3 28  1  0
  3 29  1  0
  3 30  1  0
  5 31  1  0
  8 32  1  0
  9 33  1  0
 11 34  1  0
 11 35  1  0
 12 36  1  0
 15 37  1  0
 15 38  1  0
 16 39  1  0
 16 40  1  0
 18 41  1  0
 19 42  1  0
 21 43  1  0
 22 44  1  0
M  END
>  <Energy>  (362) 
805.71464790802827

>  <compound_id>  (362) 
35268

>  <target_id>  (362) 
1

>  <reference_id>  (362) 
94

>  <inspiration_ids>  (362) 
[94, 122]

>  <energy_score>  (362) 
777.2107692553095

>  <distance_score>  (362) 
12.838713324804791

>  <path>  (362) 
/opt/xchem-fragalysis-2/maxwin/BulkDock/SCRATCH/511015/C35268-P94/C35268-P94.minimised.mol

>  <scratch_subdir>  (362) 
/opt/xchem-fragalysis-2/maxwin/BulkDock/SCRATCH/511015/C35268-P94

>  <fragmenstein_runtime>  (362) 
34.17442512512207

>  <fragmenstein_outcome>  (362) 
too moved

>  <fragmenstein_mode>  (362) 
expansion

>  <fragmenstein_error>  (362) 


$$$$
C35268-P122
     RDKit          3D

 44 46  0  0  0  0  0  0  0  0999 V2000
   -1.9922  -18.4595   27.6874 C   0  0  0  0  0  0  0  0  0  0  0  0
   -2.5541  -17.5823   28.7778 C   0  0  0  0  0  0  0  0  0  0  0  0
   -3.9738  -17.9385   29.2201 C   0  0  0  0  0  0  0  0  0  0  0  0
   -2.1815  -16.1584   28.7711 N   0  0  0  0  0  0  0  0  0  0  0  0
   -1.9221  -15.6546   30.0460 C   0  0  0  0  0  0  0  0  0  0  0  0
   -1.3130  -14.5071   30.0224 N   0  0  0  0  0  0  0  0  0  0  0  0
   -1.2504  -14.1722   28.7043 C   0  0  0  0  0  0  0  0  0  0  0  0
   -0.7215  -13.0204   28.1266 C   0  0  0  0  0  0  0  0  0  0  0  0
   -0.6967  -12.8180   26.6997 C   0  0  0  0  0  0  0  0  0  0  0  0
   -1.3665  -13.5775   25.6161 C   0  0  0  0  0  0  0  0  0  0  0  0
   -0.4378  -14.0747   23.8905 C   0  0  0  0  0  0  0  0  0  0  0  0
   -0.0779  -12.5227   22.7774 N   0  0  0  0  0  0  0  0  0  0  0  0
    1.1997  -11.6471   22.6261 C   0  0  0  0  0  0  0  0  0  0  0  0
    2.3251  -11.7960   23.1054 O   0  0  0  0  0  0  0  0  0  0  0  0
    0.4745  -10.1939   21.5917 C   0  0  0  0  0  0  0  0  0  0  0  0
    0.9132   -8.6284   21.2317 C   0  0  0  0  0  0  0  0  0  0  0  0
    2.2577   -7.9647   20.9559 C   0  0  0  0  0  0  0  0  0  0  0  0
    2.6693   -7.1162   19.9336 C   0  0  0  0  0  0  0  0  0  0  0  0
    3.9828   -6.7225   20.2592 C   0  0  0  0  0  0  0  0  0  0  0  0
    4.3930   -7.2624   21.4075 N   0  0  0  0  0  0  0  0  0  0  0  0
    3.3186   -7.9763   21.8241 N   0  0  0  0  0  0  0  0  0  0  0  0
   -2.0707  -14.5818   26.2896 C   0  0  0  0  0  0  0  0  0  0  0  0
   -1.8671  -15.1037   27.8490 C   0  0  0  0  0  0  0  0  0  0  0  0
   -0.9113  -18.5834   27.8334 H   0  0  0  0  0  0  0  0  0  0  0  0
   -2.0926  -18.0126   26.7024 H   0  0  0  0  0  0  0  0  0  0  0  0
   -2.4328  -19.4614   27.6927 H   0  0  0  0  0  0  0  0  0  0  0  0
   -1.9641  -17.9551   29.6349 H   0  0  0  0  0  0  0  0  0  0  0  0
   -3.9365  -18.7508   29.9576 H   0  0  0  0  0  0  0  0  0  0  0  0
   -4.5791  -18.3297   28.4028 H   0  0  0  0  0  0  0  0  0  0  0  0
   -4.4914  -17.1043   29.7005 H   0  0  0  0  0  0  0  0  0  0  0  0
   -2.1617  -16.2057   30.9486 H   0  0  0  0  0  0  0  0  0  0  0  0
   -0.1767  -12.3312   28.7676 H   0  0  0  0  0  0  0  0  0  0  0  0
    0.1175  -12.1235   26.4890 H   0  0  0  0  0  0  0  0  0  0  0  0
   -1.0772  -14.7634   23.3528 H   0  0  0  0  0  0  0  0  0  0  0  0
    0.5631  -14.2939   24.2237 H   0  0  0  0  0  0  0  0  0  0  0  0
   -0.8579  -12.0563   22.3131 H   0  0  0  0  0  0  0  0  0  0  0  0
   -0.2560   -9.8820   22.3599 H   0  0  0  0  0  0  0  0  0  0  0  0
   -0.3922  -10.5156   21.0065 H   0  0  0  0  0  0  0  0  0  0  0  0
    0.2743   -8.3561   20.3787 H   0  0  0  0  0  0  0  0  0  0  0  0
    0.4947   -8.0227   22.0538 H   0  0  0  0  0  0  0  0  0  0  0  0
    2.0825   -6.8212   19.0757 H   0  0  0  0  0  0  0  0  0  0  0  0
    4.6467   -6.0645   19.7146 H   0  0  0  0  0  0  0  0  0  0  0  0
    3.3842   -8.5145   22.6806 H   0  0  0  0  0  0  0  0  0  0  0  0
   -2.4193  -15.2942   25.5133 H   0  0  0  0  0  0  0  0  0  0  0  0
  1  2  1  0
  2  3  1  0
  2  4  1  0
  4  5  1  0
  5  6  2  0
  6  7  1  0
  7  8  2  0
  8  9  1  0
  9 10  2  0
 10 11  1  0
 11 12  1  0
 12 13  1  0
 13 14  2  0
 13 15  1  0
 15 16  1  0
 16 17  1  0
 17 18  2  0
 18 19  1  0
 19 20  2  0
 20 21  1  0
 10 22  1  0
 22 23  2  0
 23  4  1  0
 23  7  1  0
 21 17  1  0
  1 24  1  0
  1 25  1  0
  1 26  1  0
  2 27  1  0
  3 28  1  0
  3 29  1  0
  3 30  1  0
  5 31  1  0
  8 32  1  0
  9 33  1  0
 11 34  1  0
 11 35  1  0
 12 36  1  0
 15 37  1  0
 15 38  1  0
 16 39  1  0
 16 40  1  0
 18 41  1  0
 19 42  1  0
 21 43  1  0
 22 44  1  0
M  END
>  <Energy>  (363) 
285.13114355096997

>  <compound_id>  (363) 
35268

>  <target_id>  (363) 
1

>  <reference_id>  (363) 
122

>  <inspiration_ids>  (363) 
[94, 122]

>  <energy_score>  (363) 
256.62726489825775

>  <distance_score>  (363) 
13.581332888213177

>  <path>  (363) 
/opt/xchem-fragalysis-2/maxwin/BulkDock/SCRATCH/511015/C35268-P122/C35268-P122.minimised.mol

>  <scratch_subdir>  (363) 
/opt/xchem-fragalysis-2/maxwin/BulkDock/SCRATCH/511015/C35268-P122

>  <fragmenstein_runtime>  (363) 
23.551863193511963

>  <fragmenstein_outcome>  (363) 
too moved

>  <fragmenstein_mode>  (363) 
expansion

>  <fragmenstein_error>  (363) 


$$$$
C35252-P94
     RDKit          3D

 33 36  0  0  0  0  0  0  0  0999 V2000
   -2.9063  -13.4983   26.3526 O   0  0  0  0  0  0  0  0  0  0  0  0
   -2.3603  -14.6244   26.6382 C   0  0  0  0  0  0  0  0  0  0  0  0
   -2.5459  -15.5907   28.0208 N   0  0  0  0  0  0  0  0  0  0  0  0
   -3.6064  -16.9644   27.7738 N   0  0  0  0  0  0  0  0  0  0  0  0
   -4.9788  -17.8193   29.0273 C   0  0  0  0  0  0  0  0  0  0  0  0
   -6.9159  -18.2582   29.6379 C   0  0  0  0  0  0  0  0  0  0  0  0
   -8.1853  -19.3527   28.7103 C   0  0  0  0  0  0  0  0  0  0  0  0
   -9.8403  -20.4179   29.4598 C   0  0  0  0  0  0  0  0  0  0  0  0
  -10.0935  -20.3514   31.3470 C   0  0  0  0  0  0  0  0  0  0  0  0
  -10.9693  -20.7958   32.2939 N   0  0  0  0  0  0  0  0  0  0  0  0
  -10.9169  -19.8973   33.3562 C   0  0  0  0  0  0  0  0  0  0  0  0
   -9.8403  -19.0948   33.4838 N   0  0  0  0  0  0  0  0  0  0  0  0
   -9.0194  -19.2141   32.4006 C   0  0  0  0  0  0  0  0  0  0  0  0
   -7.4885  -18.1158   31.4628 C   0  0  0  0  0  0  0  0  0  0  0  0
   -2.5585  -17.0336   26.2870 C   0  0  0  0  0  0  0  0  0  0  0  0
   -1.8311  -18.0338   26.1393 O   0  0  0  0  0  0  0  0  0  0  0  0
   -2.2515  -15.3338   25.5175 N   0  0  0  0  0  0  0  0  0  0  0  0
   -0.9017  -14.2647   24.8365 C   0  0  0  0  0  0  0  0  0  0  0  0
    0.1630  -14.1439   23.7940 C   0  0  0  0  0  0  0  0  0  0  0  0
    1.7237  -13.3001   24.3475 C   0  0  0  0  0  0  0  0  0  0  0  0
    1.5944  -13.3187   25.6712 N   0  0  0  0  0  0  0  0  0  0  0  0
    0.3248  -13.4276   25.9882 N   0  0  0  0  0  0  0  0  0  0  0  0
   -2.7012  -15.1656   28.9355 H   0  0  0  0  0  0  0  0  0  0  0  0
   -4.6185  -18.8534   28.9645 H   0  0  0  0  0  0  0  0  0  0  0  0
   -4.6454  -17.3521   29.9626 H   0  0  0  0  0  0  0  0  0  0  0  0
   -7.5087  -19.7892   27.9461 H   0  0  0  0  0  0  0  0  0  0  0  0
  -10.3879  -21.2391   28.9602 H   0  0  0  0  0  0  0  0  0  0  0  0
  -11.7291  -21.4418   32.1357 H   0  0  0  0  0  0  0  0  0  0  0  0
  -11.7197  -19.9072   34.0846 H   0  0  0  0  0  0  0  0  0  0  0  0
   -6.8714  -17.5980   32.2107 H   0  0  0  0  0  0  0  0  0  0  0  0
   -0.0957  -14.2547   22.7402 H   0  0  0  0  0  0  0  0  0  0  0  0
    2.6260  -13.0777   23.7791 H   0  0  0  0  0  0  0  0  0  0  0  0
    0.1913  -13.6829   26.9373 H   0  0  0  0  0  0  0  0  0  0  0  0
  1  2  2  0
  2  3  1  0
  3  4  1  0
  4  5  1  0
  5  6  1  0
  6  7  2  0
  7  8  1  0
  8  9  2  0
  9 10  1  0
 10 11  1  0
 11 12  2  0
 12 13  1  0
 13 14  2  0
  4 15  1  0
 15 16  2  0
 15 17  1  0
 17 18  1  0
 18 19  2  0
 19 20  1  0
 20 21  2  0
 21 22  1  0
 17  2  1  0
 22 18  1  0
 14  6  1  0
 13  9  1  0
  3 23  1  0
  5 24  1  0
  5 25  1  0
  7 26  1  0
  8 27  1  0
 10 28  1  0
 11 29  1  0
 14 30  1  0
 19 31  1  0
 20 32  1  0
 22 33  1  0
M  END
>  <Energy>  (364) 
1438.5242380372731

>  <compound_id>  (364) 
35252

>  <target_id>  (364) 
1

>  <reference_id>  (364) 
94

>  <inspiration_ids>  (364) 
[94, 122]

>  <energy_score>  (364) 
1371.7811725274692

>  <distance_score>  (364) 
12.748400526728798

>  <path>  (364) 
/opt/xchem-fragalysis-2/maxwin/BulkDock/SCRATCH/511015/C35252-P94/C35252-P94.minimised.mol

>  <scratch_subdir>  (364) 
/opt/xchem-fragalysis-2/maxwin/BulkDock/SCRATCH/511015/C35252-P94

>  <fragmenstein_runtime>  (364) 
16.744383335113525

>  <fragmenstein_outcome>  (364) 
too moved

>  <fragmenstein_mode>  (364) 
expansion

>  <fragmenstein_error>  (364) 


$$$$
C35252-P122
     RDKit          3D

 33 36  0  0  0  0  0  0  0  0999 V2000
   -1.9652  -14.4548   17.3481 O   0  0  0  0  0  0  0  0  0  0  0  0
   -1.8150  -14.3493   18.5710 C   0  0  0  0  0  0  0  0  0  0  0  0
   -1.9532  -15.4128   19.9839 N   0  0  0  0  0  0  0  0  0  0  0  0
   -2.0939  -14.6275   21.5654 N   0  0  0  0  0  0  0  0  0  0  0  0
   -2.2111  -15.2838   23.6275 C   0  0  0  0  0  0  0  0  0  0  0  0
   -2.5231  -16.6286   25.2038 C   0  0  0  0  0  0  0  0  0  0  0  0
   -2.5870  -16.6525   26.8628 C   0  0  0  0  0  0  0  0  0  0  0  0
   -3.4414  -17.4140   27.8593 C   0  0  0  0  0  0  0  0  0  0  0  0
   -3.2746  -18.7985   27.8818 C   0  0  0  0  0  0  0  0  0  0  0  0
   -3.6385  -19.8495   28.6602 N   0  0  0  0  0  0  0  0  0  0  0  0
   -2.6918  -20.8024   28.4179 C   0  0  0  0  0  0  0  0  0  0  0  0
   -1.8351  -20.4094   27.4890 N   0  0  0  0  0  0  0  0  0  0  0  0
   -2.2929  -19.1927   26.9951 C   0  0  0  0  0  0  0  0  0  0  0  0
   -1.9452  -18.0862   25.7991 C   0  0  0  0  0  0  0  0  0  0  0  0
   -2.0901  -12.9280   20.6748 C   0  0  0  0  0  0  0  0  0  0  0  0
   -2.1075  -11.7674   21.1173 O   0  0  0  0  0  0  0  0  0  0  0  0
   -2.0023  -12.8916   19.1949 N   0  0  0  0  0  0  0  0  0  0  0  0
   -2.0229  -11.7553   18.3388 C   0  0  0  0  0  0  0  0  0  0  0  0
   -2.2230  -10.3988   18.5329 C   0  0  0  0  0  0  0  0  0  0  0  0
   -1.8055   -9.7775   17.3289 C   0  0  0  0  0  0  0  0  0  0  0  0
   -1.4750  -10.6681   16.3868 N   0  0  0  0  0  0  0  0  0  0  0  0
   -1.7459  -11.8495   16.9902 N   0  0  0  0  0  0  0  0  0  0  0  0
   -2.0638  -16.4201   19.9836 H   0  0  0  0  0  0  0  0  0  0  0  0
   -3.2762  -15.0694   23.7639 H   0  0  0  0  0  0  0  0  0  0  0  0
   -1.2899  -14.9023   24.1022 H   0  0  0  0  0  0  0  0  0  0  0  0
   -2.2251  -15.7141   27.3692 H   0  0  0  0  0  0  0  0  0  0  0  0
   -3.8626  -16.9104   28.7281 H   0  0  0  0  0  0  0  0  0  0  0  0
   -4.3372  -19.8539   29.3941 H   0  0  0  0  0  0  0  0  0  0  0  0
   -2.6530  -21.7328   28.9661 H   0  0  0  0  0  0  0  0  0  0  0  0
   -0.8582  -18.1985   25.8937 H   0  0  0  0  0  0  0  0  0  0  0  0
   -2.4696   -9.9079   19.4643 H   0  0  0  0  0  0  0  0  0  0  0  0
   -1.7113   -8.7198   17.1226 H   0  0  0  0  0  0  0  0  0  0  0  0
   -1.6325  -12.7133   16.4653 H   0  0  0  0  0  0  0  0  0  0  0  0
  1  2  2  0
  2  3  1  0
  3  4  1  0
  4  5  1  0
  5  6  1  0
  6  7  2  0
  7  8  1  0
  8  9  2  0
  9 10  1  0
 10 11  1  0
 11 12  2  0
 12 13  1  0
 13 14  2  0
  4 15  1  0
 15 16  2  0
 15 17  1  0
 17 18  1  0
 18 19  2  0
 19 20  1  0
 20 21  2  0
 21 22  1  0
 17  2  1  0
 22 18  1  0
 14  6  1  0
 13  9  1  0
  3 23  1  0
  5 24  1  0
  5 25  1  0
  7 26  1  0
  8 27  1  0
 10 28  1  0
 11 29  1  0
 14 30  1  0
 19 31  1  0
 20 32  1  0
 22 33  1  0
M  END
>  <Energy>  (365) 
808.12060845667099

>  <compound_id>  (365) 
35252

>  <target_id>  (365) 
1

>  <reference_id>  (365) 
122

>  <inspiration_ids>  (365) 
[94, 122]

>  <energy_score>  (365) 
741.3775429468399

>  <distance_score>  (365) 
13.662369224520306

>  <path>  (365) 
/opt/xchem-fragalysis-2/maxwin/BulkDock/SCRATCH/511015/C35252-P122/C35252-P122.minimised.mol

>  <scratch_subdir>  (365) 
/opt/xchem-fragalysis-2/maxwin/BulkDock/SCRATCH/511015/C35252-P122

>  <fragmenstein_runtime>  (365) 
15.987468004226685

>  <fragmenstein_outcome>  (365) 
too moved

>  <fragmenstein_mode>  (365) 
expansion

>  <fragmenstein_error>  (365) 


$$$$
C35253-P94
     RDKit          3D

 38 40  0  0  0  0  0  0  0  0999 V2000
   -1.0821  -20.7275   26.5732 C   0  0  0  0  0  0  0  0  0  0  0  0
   -2.2173  -21.2716   25.7800 C   0  0  0  0  0  0  0  0  0  0  0  0
   -3.3677  -21.6401   26.3026 N   0  0  0  0  0  0  0  0  0  0  0  0
   -4.1041  -22.1186   25.2611 C   0  0  0  0  0  0  0  0  0  0  0  0
   -5.3937  -22.6560   25.2840 C   0  0  0  0  0  0  0  0  0  0  0  0
   -5.9547  -23.1176   24.0915 C   0  0  0  0  0  0  0  0  0  0  0  0
   -5.2527  -23.0272   22.8983 C   0  0  0  0  0  0  0  0  0  0  0  0
   -3.9643  -22.4806   22.8562 C   0  0  0  0  0  0  0  0  0  0  0  0
   -3.4015  -22.0307   24.0563 C   0  0  0  0  0  0  0  0  0  0  0  0
   -2.1869  -21.4669   24.3948 N   0  0  0  0  0  0  0  0  0  0  0  0
   -0.9926  -21.2568   23.5672 C   0  0  0  0  0  0  0  0  0  0  0  0
   -1.0119  -20.7782   22.0534 C   0  0  0  0  0  0  0  0  0  0  0  0
    0.3014  -20.3036   21.4694 N   0  0  0  0  0  0  0  0  0  0  0  0
    0.5868  -19.3577   20.3496 C   0  0  0  0  0  0  0  0  0  0  0  0
   -0.1562  -18.6809   19.6901 O   0  0  0  0  0  0  0  0  0  0  0  0
    2.1452  -19.2864   20.0392 C   0  0  0  0  0  0  0  0  0  0  0  0
    2.7562  -17.9983   19.4018 C   0  0  0  0  0  0  0  0  0  0  0  0
    4.0853  -17.5918   19.2801 C   0  0  0  0  0  0  0  0  0  0  0  0
    4.0630  -16.3279   18.6546 C   0  0  0  0  0  0  0  0  0  0  0  0
    2.8210  -15.9481   18.3613 N   0  0  0  0  0  0  0  0  0  0  0  0
    2.0445  -16.9519   18.8519 N   0  0  0  0  0  0  0  0  0  0  0  0
   -1.3157  -20.7562   27.6424 H   0  0  0  0  0  0  0  0  0  0  0  0
   -0.8849  -19.6864   26.3012 H   0  0  0  0  0  0  0  0  0  0  0  0
   -0.1747  -21.3177   26.4132 H   0  0  0  0  0  0  0  0  0  0  0  0
   -5.9373  -22.7011   26.2189 H   0  0  0  0  0  0  0  0  0  0  0  0
   -6.9494  -23.5466   24.0895 H   0  0  0  0  0  0  0  0  0  0  0  0
   -5.7110  -23.3875   21.9795 H   0  0  0  0  0  0  0  0  0  0  0  0
   -3.4367  -22.4224   21.9115 H   0  0  0  0  0  0  0  0  0  0  0  0
   -0.4430  -22.2059   23.6122 H   0  0  0  0  0  0  0  0  0  0  0  0
   -0.3765  -20.5233   24.0982 H   0  0  0  0  0  0  0  0  0  0  0  0
   -1.7298  -19.9741   21.8998 H   0  0  0  0  0  0  0  0  0  0  0  0
   -1.3243  -21.6133   21.4186 H   0  0  0  0  0  0  0  0  0  0  0  0
    1.1611  -20.7679   21.7405 H   0  0  0  0  0  0  0  0  0  0  0  0
    2.6887  -19.4648   20.9751 H   0  0  0  0  0  0  0  0  0  0  0  0
    2.3630  -20.1211   19.3616 H   0  0  0  0  0  0  0  0  0  0  0  0
    4.9566  -18.1400   19.6097 H   0  0  0  0  0  0  0  0  0  0  0  0
    4.8923  -15.6846   18.3918 H   0  0  0  0  0  0  0  0  0  0  0  0
    1.0311  -16.8640   18.8005 H   0  0  0  0  0  0  0  0  0  0  0  0
  1  2  1  0
  2  3  2  0
  3  4  1  0
  4  5  2  0
  5  6  1  0
  6  7  2  0
  7  8  1  0
  8  9  2  0
  9 10  1  0
 10 11  1  0
 11 12  1  0
 12 13  1  0
 13 14  1  0
 14 15  2  0
 14 16  1  0
 16 17  1  0
 17 18  2  0
 18 19  1  0
 19 20  2  0
 20 21  1  0
 10  2  1  0
 21 17  1  0
  9  4  1  0
  1 22  1  0
  1 23  1  0
  1 24  1  0
  5 25  1  0
  6 26  1  0
  7 27  1  0
  8 28  1  0
 11 29  1  0
 11 30  1  0
 12 31  1  0
 12 32  1  0
 13 33  1  0
 16 34  1  0
 16 35  1  0
 18 36  1  0
 19 37  1  0
 21 38  1  0
M  END
>  <Energy>  (366) 
54.114960163728632

>  <compound_id>  (366) 
35253

>  <target_id>  (366) 
1

>  <reference_id>  (366) 
94

>  <inspiration_ids>  (366) 
[94, 122]

>  <energy_score>  (366) 
-0.42328770463780074

>  <distance_score>  (366) 
14.350165771452499

>  <path>  (366) 
/opt/xchem-fragalysis-2/maxwin/BulkDock/SCRATCH/511015/C35253-P94/C35253-P94.minimised.mol

>  <scratch_subdir>  (366) 
/opt/xchem-fragalysis-2/maxwin/BulkDock/SCRATCH/511015/C35253-P94

>  <fragmenstein_runtime>  (366) 
21.968586921691895

>  <fragmenstein_outcome>  (366) 
too moved

>  <fragmenstein_mode>  (366) 
expansion

>  <fragmenstein_error>  (366) 


$$$$
C35253-P122
     RDKit          3D

 38 40  0  0  0  0  0  0  0  0999 V2000
  -12.5175  -15.7908   21.8428 C   0  0  0  0  0  0  0  0  0  0  0  0
  -11.5732  -15.7849   22.9924 C   0  0  0  0  0  0  0  0  0  0  0  0
  -11.9433  -15.8382   24.2574 N   0  0  0  0  0  0  0  0  0  0  0  0
  -10.7931  -15.8538   24.9877 C   0  0  0  0  0  0  0  0  0  0  0  0
  -10.6378  -15.8724   26.3874 C   0  0  0  0  0  0  0  0  0  0  0  0
   -9.3742  -16.0704   26.9305 C   0  0  0  0  0  0  0  0  0  0  0  0
   -8.2849  -16.2017   26.0825 C   0  0  0  0  0  0  0  0  0  0  0  0
   -8.4095  -16.1012   24.6850 C   0  0  0  0  0  0  0  0  0  0  0  0
   -9.6821  -15.8953   24.1445 C   0  0  0  0  0  0  0  0  0  0  0  0
  -10.1918  -15.6967   22.8616 N   0  0  0  0  0  0  0  0  0  0  0  0
   -9.4614  -15.6600   21.5789 C   0  0  0  0  0  0  0  0  0  0  0  0
   -9.5849  -14.4066   20.5266 C   0  0  0  0  0  0  0  0  0  0  0  0
   -8.5015  -13.3840   20.1468 N   0  0  0  0  0  0  0  0  0  0  0  0
   -7.8037  -13.1243   18.8244 C   0  0  0  0  0  0  0  0  0  0  0  0
   -7.8737  -13.7117   17.7761 O   0  0  0  0  0  0  0  0  0  0  0  0
   -6.9292  -11.7772   18.8729 C   0  0  0  0  0  0  0  0  0  0  0  0
   -5.6332  -11.4963   18.0034 C   0  0  0  0  0  0  0  0  0  0  0  0
   -4.2954  -11.2350   18.3571 C   0  0  0  0  0  0  0  0  0  0  0  0
   -3.6264  -10.7962   17.2013 C   0  0  0  0  0  0  0  0  0  0  0  0
   -4.4447  -10.7971   16.1521 N   0  0  0  0  0  0  0  0  0  0  0  0
   -5.6303  -11.2328   16.6498 N   0  0  0  0  0  0  0  0  0  0  0  0
  -12.2535  -16.5660   21.1178 H   0  0  0  0  0  0  0  0  0  0  0  0
  -12.5237  -14.8195   21.3407 H   0  0  0  0  0  0  0  0  0  0  0  0
  -13.5357  -15.9940   22.1902 H   0  0  0  0  0  0  0  0  0  0  0  0
  -11.5031  -15.7592   27.0322 H   0  0  0  0  0  0  0  0  0  0  0  0
   -9.2423  -16.1258   28.0069 H   0  0  0  0  0  0  0  0  0  0  0  0
   -7.3087  -16.3995   26.5114 H   0  0  0  0  0  0  0  0  0  0  0  0
   -7.5304  -16.2190   24.0684 H   0  0  0  0  0  0  0  0  0  0  0  0
   -8.4382  -15.9588   21.7572 H   0  0  0  0  0  0  0  0  0  0  0  0
   -9.8830  -16.5195   21.0364 H   0  0  0  0  0  0  0  0  0  0  0  0
  -10.4265  -13.7861   20.8518 H   0  0  0  0  0  0  0  0  0  0  0  0
   -9.8644  -14.8524   19.5643 H   0  0  0  0  0  0  0  0  0  0  0  0
   -8.2723  -12.6392   20.7986 H   0  0  0  0  0  0  0  0  0  0  0  0
   -6.6375  -11.6445   19.9065 H   0  0  0  0  0  0  0  0  0  0  0  0
   -7.6341  -10.9677   18.6396 H   0  0  0  0  0  0  0  0  0  0  0  0
   -3.8578  -11.3229   19.3446 H   0  0  0  0  0  0  0  0  0  0  0  0
   -2.5963  -10.4824   17.0887 H   0  0  0  0  0  0  0  0  0  0  0  0
   -6.4132  -11.3052   16.0086 H   0  0  0  0  0  0  0  0  0  0  0  0
  1  2  1  0
  2  3  2  0
  3  4  1  0
  4  5  2  0
  5  6  1  0
  6  7  2  0
  7  8  1  0
  8  9  2  0
  9 10  1  0
 10 11  1  0
 11 12  1  0
 12 13  1  0
 13 14  1  0
 14 15  2  0
 14 16  1  0
 16 17  1  0
 17 18  2  0
 18 19  1  0
 19 20  2  0
 20 21  1  0
 10  2  1  0
 21 17  1  0
  9  4  1  0
  1 22  1  0
  1 23  1  0
  1 24  1  0
  5 25  1  0
  6 26  1  0
  7 27  1  0
  8 28  1  0
 11 29  1  0
 11 30  1  0
 12 31  1  0
 12 32  1  0
 13 33  1  0
 16 34  1  0
 16 35  1  0
 18 36  1  0
 19 37  1  0
 21 38  1  0
M  END
>  <Energy>  (367) 
78.320462970260309

>  <compound_id>  (367) 
35253

>  <target_id>  (367) 
1

>  <reference_id>  (367) 
122

>  <inspiration_ids>  (367) 
[94, 122]

>  <energy_score>  (367) 
23.782215101894053

>  <distance_score>  (367) 
15.260496848951467

>  <path>  (367) 
/opt/xchem-fragalysis-2/maxwin/BulkDock/SCRATCH/511015/C35253-P122/C35253-P122.minimised.mol

>  <scratch_subdir>  (367) 
/opt/xchem-fragalysis-2/maxwin/BulkDock/SCRATCH/511015/C35253-P122

>  <fragmenstein_runtime>  (367) 
28.14811420440674

>  <fragmenstein_outcome>  (367) 
too moved

>  <fragmenstein_mode>  (367) 
expansion

>  <fragmenstein_error>  (367) 


$$$$
C35265-P94
     RDKit          3D

 30 33  0  0  0  0  0  0  0  0999 V2000
    0.4696  -24.8626   22.7211 C   0  0  0  0  0  0  0  0  0  0  0  0
   -0.5159  -23.7653   22.8453 C   0  0  0  0  0  0  0  0  0  0  0  0
   -0.2636  -22.4815   22.9241 N   0  0  0  0  0  0  0  0  0  0  0  0
   -1.4743  -21.7428   22.9939 C   0  0  0  0  0  0  0  0  0  0  0  0
   -1.6284  -20.0738   22.9383 C   0  0  0  0  0  0  0  0  0  0  0  0
   -1.0964  -18.5528   21.6373 C   0  0  0  0  0  0  0  0  0  0  0  0
   -1.8159  -17.9907   20.4917 N   0  0  0  0  0  0  0  0  0  0  0  0
   -1.1699  -16.9343   19.7079 O   0  0  0  0  0  0  0  0  0  0  0  0
    0.4349  -16.5893   19.9331 C   0  0  0  0  0  0  0  0  0  0  0  0
    1.5776  -15.6929   18.5059 C   0  0  0  0  0  0  0  0  0  0  0  0
    2.5425  -14.6412   18.2930 C   0  0  0  0  0  0  0  0  0  0  0  0
    3.1739  -14.5897   17.0397 C   0  0  0  0  0  0  0  0  0  0  0  0
    3.0536  -15.7678   16.4642 N   0  0  0  0  0  0  0  0  0  0  0  0
    2.5798  -16.5268   17.4896 N   0  0  0  0  0  0  0  0  0  0  0  0
    0.3123  -17.5842   21.1011 N   0  0  0  0  0  0  0  0  0  0  0  0
   -2.7414  -20.5835   24.1255 C   0  0  0  0  0  0  0  0  0  0  0  0
   -3.6656  -21.6272   24.5221 C   0  0  0  0  0  0  0  0  0  0  0  0
   -3.7188  -22.6976   23.7247 C   0  0  0  0  0  0  0  0  0  0  0  0
   -2.4605  -22.7893   23.1755 C   0  0  0  0  0  0  0  0  0  0  0  0
   -1.8529  -23.9776   22.8469 N   0  0  0  0  0  0  0  0  0  0  0  0
    1.4900  -24.4703   22.7692 H   0  0  0  0  0  0  0  0  0  0  0  0
    0.3449  -25.5871   23.5318 H   0  0  0  0  0  0  0  0  0  0  0  0
    0.3487  -25.3826   21.7659 H   0  0  0  0  0  0  0  0  0  0  0  0
    3.0086  -14.1634   19.0897 H   0  0  0  0  0  0  0  0  0  0  0  0
    3.8397  -13.8461   16.6224 H   0  0  0  0  0  0  0  0  0  0  0  0
    2.5119  -17.5353   17.3921 H   0  0  0  0  0  0  0  0  0  0  0  0
   -2.7220  -20.0022   25.0954 H   0  0  0  0  0  0  0  0  0  0  0  0
   -4.3006  -21.5043   25.3942 H   0  0  0  0  0  0  0  0  0  0  0  0
   -4.3839  -23.5362   23.8789 H   0  0  0  0  0  0  0  0  0  0  0  0
   -2.3051  -24.8800   22.8433 H   0  0  0  0  0  0  0  0  0  0  0  0
  1  2  1  0
  2  3  2  0
  3  4  1  0
  4  5  2  0
  5  6  1  0
  6  7  2  0
  7  8  1  0
  8  9  1  0
  9 10  1  0
 10 11  2  0
 11 12  1  0
 12 13  2  0
 13 14  1  0
  9 15  2  0
  5 16  1  0
 16 17  2  0
 17 18  1  0
 18 19  2  0
 19 20  1  0
 20  2  1  0
 19  4  1  0
 15  6  1  0
 14 10  1  0
  1 21  1  0
  1 22  1  0
  1 23  1  0
 11 24  1  0
 12 25  1  0
 14 26  1  0
 16 27  1  0
 17 28  1  0
 18 29  1  0
 20 30  1  0
M  END
>  <Energy>  (368) 
729.48040642380136

>  <compound_id>  (368) 
35265

>  <target_id>  (368) 
1

>  <reference_id>  (368) 
94

>  <inspiration_ids>  (368) 
[94, 122]

>  <energy_score>  (368) 
671.3412874495735

>  <distance_score>  (368) 
14.607916397971856

>  <path>  (368) 
/opt/xchem-fragalysis-2/maxwin/BulkDock/SCRATCH/511015/C35265-P94/C35265-P94.minimised.mol

>  <scratch_subdir>  (368) 
/opt/xchem-fragalysis-2/maxwin/BulkDock/SCRATCH/511015/C35265-P94

>  <fragmenstein_runtime>  (368) 
15.945391654968262

>  <fragmenstein_outcome>  (368) 
too moved

>  <fragmenstein_mode>  (368) 
expansion

>  <fragmenstein_error>  (368) 


$$$$
C35265-P122
     RDKit          3D

 30 33  0  0  0  0  0  0  0  0999 V2000
   -4.9766  -22.8498   20.7384 C   0  0  0  0  0  0  0  0  0  0  0  0
   -5.5537  -21.5457   20.3430 C   0  0  0  0  0  0  0  0  0  0  0  0
   -5.0742  -20.7115   19.4407 N   0  0  0  0  0  0  0  0  0  0  0  0
   -5.9069  -19.6045   19.4127 C   0  0  0  0  0  0  0  0  0  0  0  0
   -5.8737  -18.3965   18.6297 C   0  0  0  0  0  0  0  0  0  0  0  0
   -4.7907  -18.0043   17.6297 C   0  0  0  0  0  0  0  0  0  0  0  0
   -3.8498  -18.8330   17.1538 N   0  0  0  0  0  0  0  0  0  0  0  0
   -3.0390  -18.0471   16.3257 O   0  0  0  0  0  0  0  0  0  0  0  0
   -3.5065  -16.7454   16.3288 C   0  0  0  0  0  0  0  0  0  0  0  0
   -2.7643  -15.6395   15.6717 C   0  0  0  0  0  0  0  0  0  0  0  0
   -1.6349  -15.6488   14.8526 C   0  0  0  0  0  0  0  0  0  0  0  0
   -1.2319  -14.3011   14.6980 C   0  0  0  0  0  0  0  0  0  0  0  0
   -2.0709  -13.4691   15.3131 N   0  0  0  0  0  0  0  0  0  0  0  0
   -3.0206  -14.2956   15.8149 N   0  0  0  0  0  0  0  0  0  0  0  0
   -4.6256  -16.6881   17.0647 N   0  0  0  0  0  0  0  0  0  0  0  0
   -6.9756  -17.5341   18.8502 C   0  0  0  0  0  0  0  0  0  0  0  0
   -7.9817  -17.7753   19.8070 C   0  0  0  0  0  0  0  0  0  0  0  0
   -7.9734  -18.9166   20.5995 C   0  0  0  0  0  0  0  0  0  0  0  0
   -6.9382  -19.8131   20.3538 C   0  0  0  0  0  0  0  0  0  0  0  0
   -6.6761  -21.0329   20.9307 N   0  0  0  0  0  0  0  0  0  0  0  0
   -4.0461  -23.0400   20.1947 H   0  0  0  0  0  0  0  0  0  0  0  0
   -4.7536  -22.8661   21.8097 H   0  0  0  0  0  0  0  0  0  0  0  0
   -5.6749  -23.6624   20.5154 H   0  0  0  0  0  0  0  0  0  0  0  0
   -1.1205  -16.5277   14.4872 H   0  0  0  0  0  0  0  0  0  0  0  0
   -0.3705  -13.9053   14.1749 H   0  0  0  0  0  0  0  0  0  0  0  0
   -3.8185  -13.8763   16.2742 H   0  0  0  0  0  0  0  0  0  0  0  0
   -7.0540  -16.6321   18.2443 H   0  0  0  0  0  0  0  0  0  0  0  0
   -8.7862  -17.0518   19.9219 H   0  0  0  0  0  0  0  0  0  0  0  0
   -8.7439  -19.1077   21.3362 H   0  0  0  0  0  0  0  0  0  0  0  0
   -7.1994  -21.4630   21.6772 H   0  0  0  0  0  0  0  0  0  0  0  0
  1  2  1  0
  2  3  2  0
  3  4  1  0
  4  5  2  0
  5  6  1  0
  6  7  2  0
  7  8  1  0
  8  9  1  0
  9 10  1  0
 10 11  2  0
 11 12  1  0
 12 13  2  0
 13 14  1  0
  9 15  2  0
  5 16  1  0
 16 17  2  0
 17 18  1  0
 18 19  2  0
 19 20  1  0
 20  2  1  0
 19  4  1  0
 15  6  1  0
 14 10  1  0
  1 21  1  0
  1 22  1  0
  1 23  1  0
 11 24  1  0
 12 25  1  0
 14 26  1  0
 16 27  1  0
 17 28  1  0
 18 29  1  0
 20 30  1  0
M  END
>  <Energy>  (369) 
49.265921984252302

>  <compound_id>  (369) 
35265

>  <target_id>  (369) 
1

>  <reference_id>  (369) 
122

>  <inspiration_ids>  (369) 
[94, 122]

>  <energy_score>  (369) 
-8.873196989966857

>  <distance_score>  (369) 
16.02478792582974

>  <path>  (369) 
/opt/xchem-fragalysis-2/maxwin/BulkDock/SCRATCH/511015/C35265-P122/C35265-P122.minimised.mol

>  <scratch_subdir>  (369) 
/opt/xchem-fragalysis-2/maxwin/BulkDock/SCRATCH/511015/C35265-P122

>  <fragmenstein_runtime>  (369) 
18.114109992980957

>  <fragmenstein_outcome>  (369) 
too moved

>  <fragmenstein_mode>  (369) 
expansion

>  <fragmenstein_error>  (369) 


$$$$
C35271-P94
     RDKit          3D

 37 39  0  0  0  0  0  0  0  0999 V2000
    0.9267  -21.4508   29.0726 C   0  0  0  0  0  0  0  0  0  0  0  0
   -0.2774  -20.7764   29.6204 C   0  0  0  0  0  0  0  0  0  0  0  0
   -1.1792  -21.3981   30.3572 N   0  0  0  0  0  0  0  0  0  0  0  0
   -2.1691  -20.4892   30.5885 C   0  0  0  0  0  0  0  0  0  0  0  0
   -3.3276  -20.6238   31.3595 C   0  0  0  0  0  0  0  0  0  0  0  0
   -4.2479  -19.5735   31.3788 C   0  0  0  0  0  0  0  0  0  0  0  0
   -4.0204  -18.4160   30.6385 C   0  0  0  0  0  0  0  0  0  0  0  0
   -2.8295  -18.2373   29.9199 C   0  0  0  0  0  0  0  0  0  0  0  0
   -1.8998  -19.2897   29.9342 C   0  0  0  0  0  0  0  0  0  0  0  0
   -0.6014  -19.4428   29.4405 N   0  0  0  0  0  0  0  0  0  0  0  0
    0.1960  -18.3437   28.8725 C   0  0  0  0  0  0  0  0  0  0  0  0
    1.7626  -18.4750   28.5786 C   0  0  0  0  0  0  0  0  0  0  0  0
    2.5081  -17.1918   28.3609 O   0  0  0  0  0  0  0  0  0  0  0  0
    3.7036  -17.2045   27.6168 C   0  0  0  0  0  0  0  0  0  0  0  0
    4.0881  -18.1942   27.0079 O   0  0  0  0  0  0  0  0  0  0  0  0
    4.4986  -15.8525   27.7182 C   0  0  0  0  0  0  0  0  0  0  0  0
    5.4475  -15.4043   26.5577 C   0  0  0  0  0  0  0  0  0  0  0  0
    6.8077  -15.5923   26.3447 C   0  0  0  0  0  0  0  0  0  0  0  0
    7.1661  -14.7740   25.2485 C   0  0  0  0  0  0  0  0  0  0  0  0
    6.1220  -14.0987   24.7766 N   0  0  0  0  0  0  0  0  0  0  0  0
    5.1024  -14.5077   25.5625 N   0  0  0  0  0  0  0  0  0  0  0  0
    1.0585  -21.2251   28.0111 H   0  0  0  0  0  0  0  0  0  0  0  0
    1.8238  -21.1638   29.6267 H   0  0  0  0  0  0  0  0  0  0  0  0
    0.8214  -22.5375   29.1614 H   0  0  0  0  0  0  0  0  0  0  0  0
   -3.4978  -21.5318   31.9232 H   0  0  0  0  0  0  0  0  0  0  0  0
   -5.1611  -19.6714   31.9616 H   0  0  0  0  0  0  0  0  0  0  0  0
   -4.7669  -17.6246   30.6557 H   0  0  0  0  0  0  0  0  0  0  0  0
   -2.6343  -17.3062   29.3988 H   0  0  0  0  0  0  0  0  0  0  0  0
    0.0611  -17.4886   29.5463 H   0  0  0  0  0  0  0  0  0  0  0  0
   -0.3013  -18.0957   27.9293 H   0  0  0  0  0  0  0  0  0  0  0  0
    1.9061  -19.1095   27.6992 H   0  0  0  0  0  0  0  0  0  0  0  0
    2.2457  -18.9354   29.4452 H   0  0  0  0  0  0  0  0  0  0  0  0
    5.1121  -15.9339   28.6246 H   0  0  0  0  0  0  0  0  0  0  0  0
    3.7856  -15.0406   27.8966 H   0  0  0  0  0  0  0  0  0  0  0  0
    7.4671  -16.2162   26.9325 H   0  0  0  0  0  0  0  0  0  0  0  0
    8.1384  -14.6432   24.7913 H   0  0  0  0  0  0  0  0  0  0  0  0
    4.2029  -14.0573   25.4202 H   0  0  0  0  0  0  0  0  0  0  0  0
  1  2  1  0
  2  3  2  0
  3  4  1  0
  4  5  2  0
  5  6  1  0
  6  7  2  0
  7  8  1  0
  8  9  2  0
  9 10  1  0
 10 11  1  0
 11 12  1  0
 12 13  1  0
 13 14  1  0
 14 15  2  0
 14 16  1  0
 16 17  1  0
 17 18  2  0
 18 19  1  0
 19 20  2  0
 20 21  1  0
 10  2  1  0
 21 17  1  0
  9  4  1  0
  1 22  1  0
  1 23  1  0
  1 24  1  0
  5 25  1  0
  6 26  1  0
  7 27  1  0
  8 28  1  0
 11 29  1  0
 11 30  1  0
 12 31  1  0
 12 32  1  0
 16 33  1  0
 16 34  1  0
 18 35  1  0
 19 36  1  0
 21 37  1  0
M  END
>  <Energy>  (370) 
59.752359208001934

>  <compound_id>  (370) 
35271

>  <target_id>  (370) 
1

>  <reference_id>  (370) 
94

>  <inspiration_ids>  (370) 
[94, 122]

>  <energy_score>  (370) 
-3.2774487815607927

>  <distance_score>  (370) 
14.146491514701738

>  <path>  (370) 
/opt/xchem-fragalysis-2/maxwin/BulkDock/SCRATCH/511015/C35271-P94/C35271-P94.minimised.mol

>  <scratch_subdir>  (370) 
/opt/xchem-fragalysis-2/maxwin/BulkDock/SCRATCH/511015/C35271-P94

>  <fragmenstein_runtime>  (370) 
22.397955417633057

>  <fragmenstein_outcome>  (370) 
too moved

>  <fragmenstein_mode>  (370) 
expansion

>  <fragmenstein_error>  (370) 


$$$$
C35271-P122
     RDKit          3D

 37 39  0  0  0  0  0  0  0  0999 V2000
   -4.1779  -17.4879   29.0837 C   0  0  0  0  0  0  0  0  0  0  0  0
   -4.4077  -18.2381   27.8253 C   0  0  0  0  0  0  0  0  0  0  0  0
   -5.3051  -19.2076   27.7525 N   0  0  0  0  0  0  0  0  0  0  0  0
   -4.8566  -20.0484   26.7889 C   0  0  0  0  0  0  0  0  0  0  0  0
   -5.2926  -21.3506   26.4656 C   0  0  0  0  0  0  0  0  0  0  0  0
   -4.6359  -22.0739   25.4775 C   0  0  0  0  0  0  0  0  0  0  0  0
   -3.5473  -21.5084   24.8337 C   0  0  0  0  0  0  0  0  0  0  0  0
   -3.0967  -20.2137   25.1449 C   0  0  0  0  0  0  0  0  0  0  0  0
   -3.7770  -19.4719   26.1218 C   0  0  0  0  0  0  0  0  0  0  0  0
   -3.6514  -18.1602   26.6507 N   0  0  0  0  0  0  0  0  0  0  0  0
   -2.6149  -17.1303   26.2296 C   0  0  0  0  0  0  0  0  0  0  0  0
   -2.3937  -15.4973   25.0508 C   0  0  0  0  0  0  0  0  0  0  0  0
   -1.0000  -14.3313   24.6026 O   0  0  0  0  0  0  0  0  0  0  0  0
   -0.2874  -13.7262   23.1943 C   0  0  0  0  0  0  0  0  0  0  0  0
   -0.1974  -14.5783   22.3570 O   0  0  0  0  0  0  0  0  0  0  0  0
    0.2530  -11.7642   22.7175 C   0  0  0  0  0  0  0  0  0  0  0  0
   -0.2775  -10.1997   21.8326 C   0  0  0  0  0  0  0  0  0  0  0  0
   -1.4575   -9.6120   21.3745 C   0  0  0  0  0  0  0  0  0  0  0  0
   -1.1063   -8.3235   20.8823 C   0  0  0  0  0  0  0  0  0  0  0  0
    0.1975   -8.0796   20.9588 N   0  0  0  0  0  0  0  0  0  0  0  0
    0.6654   -9.2524   21.4123 N   0  0  0  0  0  0  0  0  0  0  0  0
   -5.0928  -16.9676   29.3797 H   0  0  0  0  0  0  0  0  0  0  0  0
   -3.9400  -18.1973   29.8846 H   0  0  0  0  0  0  0  0  0  0  0  0
   -3.3456  -16.7867   29.0301 H   0  0  0  0  0  0  0  0  0  0  0  0
   -6.1409  -21.8041   26.9629 H   0  0  0  0  0  0  0  0  0  0  0  0
   -4.9730  -23.0728   25.2143 H   0  0  0  0  0  0  0  0  0  0  0  0
   -3.0280  -22.0811   24.0669 H   0  0  0  0  0  0  0  0  0  0  0  0
   -2.2356  -19.8284   24.6210 H   0  0  0  0  0  0  0  0  0  0  0  0
   -2.2864  -16.7827   27.2295 H   0  0  0  0  0  0  0  0  0  0  0  0
   -1.8483  -17.8425   25.8933 H   0  0  0  0  0  0  0  0  0  0  0  0
   -1.8146  -16.0170   24.4259 H   0  0  0  0  0  0  0  0  0  0  0  0
   -3.1746  -15.3430   24.3267 H   0  0  0  0  0  0  0  0  0  0  0  0
   -0.7140  -11.7443   22.1388 H   0  0  0  0  0  0  0  0  0  0  0  0
    1.3059  -11.6522   22.5233 H   0  0  0  0  0  0  0  0  0  0  0  0
   -2.4596  -10.0144   21.3889 H   0  0  0  0  0  0  0  0  0  0  0  0
   -1.7640   -7.5665   20.4787 H   0  0  0  0  0  0  0  0  0  0  0  0
    1.6588   -9.3766   21.5442 H   0  0  0  0  0  0  0  0  0  0  0  0
  1  2  1  0
  2  3  2  0
  3  4  1  0
  4  5  2  0
  5  6  1  0
  6  7  2  0
  7  8  1  0
  8  9  2  0
  9 10  1  0
 10 11  1  0
 11 12  1  0
 12 13  1  0
 13 14  1  0
 14 15  2  0
 14 16  1  0
 16 17  1  0
 17 18  2  0
 18 19  1  0
 19 20  2  0
 20 21  1  0
 10  2  1  0
 21 17  1  0
  9  4  1  0
  1 22  1  0
  1 23  1  0
  1 24  1  0
  5 25  1  0
  6 26  1  0
  7 27  1  0
  8 28  1  0
 11 29  1  0
 11 30  1  0
 12 31  1  0
 12 32  1  0
 16 33  1  0
 16 34  1  0
 18 35  1  0
 19 36  1  0
 21 37  1  0
M  END
>  <Energy>  (371) 
485.23878581482802

>  <compound_id>  (371) 
35271

>  <target_id>  (371) 
1

>  <reference_id>  (371) 
122

>  <inspiration_ids>  (371) 
[94, 122]

>  <energy_score>  (371) 
422.20897782526083

>  <distance_score>  (371) 
12.932072153278728

>  <path>  (371) 
/opt/xchem-fragalysis-2/maxwin/BulkDock/SCRATCH/511015/C35271-P122/C35271-P122.minimised.mol

>  <scratch_subdir>  (371) 
/opt/xchem-fragalysis-2/maxwin/BulkDock/SCRATCH/511015/C35271-P122

>  <fragmenstein_runtime>  (371) 
14.274887323379517

>  <fragmenstein_outcome>  (371) 
too moved

>  <fragmenstein_mode>  (371) 
expansion

>  <fragmenstein_error>  (371) 


$$$$
C35272-P94
     RDKit          3D

 38 40  0  0  0  0  0  0  0  0999 V2000
   -9.8366  -20.4379   21.6290 C   0  0  0  0  0  0  0  0  0  0  0  0
   -8.7657  -19.8695   20.7838 C   0  0  0  0  0  0  0  0  0  0  0  0
   -8.9554  -19.0661   19.7548 N   0  0  0  0  0  0  0  0  0  0  0  0
   -7.7236  -18.9147   19.1546 C   0  0  0  0  0  0  0  0  0  0  0  0
   -7.3382  -18.2214   17.9683 C   0  0  0  0  0  0  0  0  0  0  0  0
   -5.9843  -18.1884   17.5029 C   0  0  0  0  0  0  0  0  0  0  0  0
   -5.5837  -17.4720   16.1565 C   0  0  0  0  0  0  0  0  0  0  0  0
   -4.6817  -16.2737   16.1383 N   0  0  0  0  0  0  0  0  0  0  0  0
   -4.0307  -15.5617   15.0047 C   0  0  0  0  0  0  0  0  0  0  0  0
   -4.1325  -15.7255   13.8160 O   0  0  0  0  0  0  0  0  0  0  0  0
   -3.0482  -14.3220   15.4656 C   0  0  0  0  0  0  0  0  0  0  0  0
   -2.0334  -13.8034   14.3485 C   0  0  0  0  0  0  0  0  0  0  0  0
   -0.8758  -12.8302   14.6344 C   0  0  0  0  0  0  0  0  0  0  0  0
    0.4805  -12.9481   14.3404 C   0  0  0  0  0  0  0  0  0  0  0  0
    1.0426  -11.6714   14.5314 C   0  0  0  0  0  0  0  0  0  0  0  0
    0.1423  -10.8129   15.0143 N   0  0  0  0  0  0  0  0  0  0  0  0
   -1.0190  -11.5128   15.0034 N   0  0  0  0  0  0  0  0  0  0  0  0
   -5.0651  -18.9360   18.2546 C   0  0  0  0  0  0  0  0  0  0  0  0
   -5.4338  -19.6716   19.4143 C   0  0  0  0  0  0  0  0  0  0  0  0
   -6.7586  -19.6136   19.8594 C   0  0  0  0  0  0  0  0  0  0  0  0
   -7.4278  -20.1546   20.9363 N   0  0  0  0  0  0  0  0  0  0  0  0
  -10.7470  -20.5793   21.0372 H   0  0  0  0  0  0  0  0  0  0  0  0
  -10.0773  -19.7568   22.4492 H   0  0  0  0  0  0  0  0  0  0  0  0
   -9.5538  -21.4148   22.0315 H   0  0  0  0  0  0  0  0  0  0  0  0
   -8.1163  -17.7036   17.4140 H   0  0  0  0  0  0  0  0  0  0  0  0
   -6.5025  -17.1493   15.6529 H   0  0  0  0  0  0  0  0  0  0  0  0
   -5.1237  -18.2197   15.4995 H   0  0  0  0  0  0  0  0  0  0  0  0
   -4.4328  -15.8253   16.9923 H   0  0  0  0  0  0  0  0  0  0  0  0
   -2.4833  -14.6088   16.3492 H   0  0  0  0  0  0  0  0  0  0  0  0
   -3.7070  -13.4932   15.7491 H   0  0  0  0  0  0  0  0  0  0  0  0
   -1.5844  -14.6995   13.8980 H   0  0  0  0  0  0  0  0  0  0  0  0
   -2.6387  -13.3526   13.5500 H   0  0  0  0  0  0  0  0  0  0  0  0
    0.9716  -13.8285   13.9487 H   0  0  0  0  0  0  0  0  0  0  0  0
    2.0604  -11.3416   14.3661 H   0  0  0  0  0  0  0  0  0  0  0  0
   -1.8745  -11.0217   15.2441 H   0  0  0  0  0  0  0  0  0  0  0  0
   -4.0286  -18.9929   17.9209 H   0  0  0  0  0  0  0  0  0  0  0  0
   -4.6915  -20.2690   19.9314 H   0  0  0  0  0  0  0  0  0  0  0  0
   -7.0043  -20.7097   21.6664 H   0  0  0  0  0  0  0  0  0  0  0  0
  1  2  1  0
  2  3  2  0
  3  4  1  0
  4  5  2  0
  5  6  1  0
  6  7  1  0
  7  8  1  0
  8  9  1  0
  9 10  2  0
  9 11  1  0
 11 12  1  0
 12 13  1  0
 13 14  2  0
 14 15  1  0
 15 16  2  0
 16 17  1  0
  6 18  2  0
 18 19  1  0
 19 20  2  0
 20 21  1  0
 21  2  1  0
 20  4  1  0
 17 13  1  0
  1 22  1  0
  1 23  1  0
  1 24  1  0
  5 25  1  0
  7 26  1  0
  7 27  1  0
  8 28  1  0
 11 29  1  0
 11 30  1  0
 12 31  1  0
 12 32  1  0
 14 33  1  0
 15 34  1  0
 17 35  1  0
 18 36  1  0
 19 37  1  0
 21 38  1  0
M  END
>  <Energy>  (372) 
22.538560617820973

>  <compound_id>  (372) 
35272

>  <target_id>  (372) 
1

>  <reference_id>  (372) 
94

>  <inspiration_ids>  (372) 
[94, 122]

>  <energy_score>  (372) 
6.2910091920600735

>  <distance_score>  (372) 
14.794070720307834

>  <path>  (372) 
/opt/xchem-fragalysis-2/maxwin/BulkDock/SCRATCH/511015/C35272-P94/C35272-P94.minimised.mol

>  <scratch_subdir>  (372) 
/opt/xchem-fragalysis-2/maxwin/BulkDock/SCRATCH/511015/C35272-P94

>  <fragmenstein_runtime>  (372) 
58.337679386138916

>  <fragmenstein_outcome>  (372) 
too moved

>  <fragmenstein_mode>  (372) 
expansion

>  <fragmenstein_error>  (372) 


$$$$
C35272-P122
     RDKit          3D

 38 40  0  0  0  0  0  0  0  0999 V2000
   -6.4665  -22.4074   26.9169 C   0  0  0  0  0  0  0  0  0  0  0  0
   -5.5738  -21.5909   26.1413 C   0  0  0  0  0  0  0  0  0  0  0  0
   -5.1541  -21.9358   24.9514 N   0  0  0  0  0  0  0  0  0  0  0  0
   -4.2202  -20.9743   24.5444 C   0  0  0  0  0  0  0  0  0  0  0  0
   -2.8093  -20.7239   23.4165 C   0  0  0  0  0  0  0  0  0  0  0  0
   -1.7560  -19.9975   22.6451 C   0  0  0  0  0  0  0  0  0  0  0  0
   -1.1965  -18.3897   21.4627 C   0  0  0  0  0  0  0  0  0  0  0  0
   -0.2167  -17.4870   20.1045 N   0  0  0  0  0  0  0  0  0  0  0  0
    0.8351  -16.1028   20.1590 C   0  0  0  0  0  0  0  0  0  0  0  0
    0.9826  -15.4906   21.1550 O   0  0  0  0  0  0  0  0  0  0  0  0
    2.0335  -15.2422   18.6142 C   0  0  0  0  0  0  0  0  0  0  0  0
    3.5488  -14.3399   18.2486 C   0  0  0  0  0  0  0  0  0  0  0  0
    3.8283  -13.4446   17.0312 C   0  0  0  0  0  0  0  0  0  0  0  0
    4.7163  -12.3691   16.9697 C   0  0  0  0  0  0  0  0  0  0  0  0
    4.6782  -11.9079   15.6490 C   0  0  0  0  0  0  0  0  0  0  0  0
    3.8524  -12.6438   14.9047 N   0  0  0  0  0  0  0  0  0  0  0  0
    3.3980  -13.5976   15.7455 N   0  0  0  0  0  0  0  0  0  0  0  0
   -1.5405  -19.6765   23.7619 C   0  0  0  0  0  0  0  0  0  0  0  0
   -2.4855  -19.4130   25.4221 C   0  0  0  0  0  0  0  0  0  0  0  0
   -4.1810  -20.0647   25.4795 C   0  0  0  0  0  0  0  0  0  0  0  0
   -5.0749  -20.3864   26.4958 N   0  0  0  0  0  0  0  0  0  0  0  0
   -5.9077  -22.9946   27.6350 H   0  0  0  0  0  0  0  0  0  0  0  0
   -6.9483  -23.0538   26.1957 H   0  0  0  0  0  0  0  0  0  0  0  0
   -7.2611  -21.8502   27.3882 H   0  0  0  0  0  0  0  0  0  0  0  0
   -2.1037  -21.5001   23.8163 H   0  0  0  0  0  0  0  0  0  0  0  0
   -0.3553  -18.0606   22.0014 H   0  0  0  0  0  0  0  0  0  0  0  0
   -2.0659  -17.9277   20.9938 H   0  0  0  0  0  0  0  0  0  0  0  0
   -0.1367  -17.9163   19.1959 H   0  0  0  0  0  0  0  0  0  0  0  0
    2.4501  -16.0322   18.0206 H   0  0  0  0  0  0  0  0  0  0  0  0
    1.4546  -14.5346   17.9723 H   0  0  0  0  0  0  0  0  0  0  0  0
    3.8792  -13.6672   19.0336 H   0  0  0  0  0  0  0  0  0  0  0  0
    4.3351  -15.0992   18.1468 H   0  0  0  0  0  0  0  0  0  0  0  0
    5.3202  -11.9891   17.7808 H   0  0  0  0  0  0  0  0  0  0  0  0
    5.2137  -11.0836   15.1955 H   0  0  0  0  0  0  0  0  0  0  0  0
    2.7855  -14.3117   15.3656 H   0  0  0  0  0  0  0  0  0  0  0  0
   -0.3784  -19.4916   23.5989 H   0  0  0  0  0  0  0  0  0  0  0  0
   -2.0487  -18.9871   26.3327 H   0  0  0  0  0  0  0  0  0  0  0  0
   -5.1254  -19.8746   27.3642 H   0  0  0  0  0  0  0  0  0  0  0  0
  1  2  1  0
  2  3  2  0
  3  4  1  0
  4  5  2  0
  5  6  1  0
  6  7  1  0
  7  8  1  0
  8  9  1  0
  9 10  2  0
  9 11  1  0
 11 12  1  0
 12 13  1  0
 13 14  2  0
 14 15  1  0
 15 16  2  0
 16 17  1  0
  6 18  2  0
 18 19  1  0
 19 20  2  0
 20 21  1  0
 21  2  1  0
 20  4  1  0
 17 13  1  0
  1 22  1  0
  1 23  1  0
  1 24  1  0
  5 25  1  0
  7 26  1  0
  7 27  1  0
  8 28  1  0
 11 29  1  0
 11 30  1  0
 12 31  1  0
 12 32  1  0
 14 33  1  0
 15 34  1  0
 17 35  1  0
 18 36  1  0
 19 37  1  0
 21 38  1  0
M  END
>  <Energy>  (373) 
802.57889499718829

>  <compound_id>  (373) 
35272

>  <target_id>  (373) 
1

>  <reference_id>  (373) 
122

>  <inspiration_ids>  (373) 
[94, 122]

>  <energy_score>  (373) 
786.3313435714178

>  <distance_score>  (373) 
12.01709951456781

>  <path>  (373) 
/opt/xchem-fragalysis-2/maxwin/BulkDock/SCRATCH/511015/C35272-P122/C35272-P122.minimised.mol

>  <scratch_subdir>  (373) 
/opt/xchem-fragalysis-2/maxwin/BulkDock/SCRATCH/511015/C35272-P122

>  <fragmenstein_runtime>  (373) 
38.56232976913452

>  <fragmenstein_outcome>  (373) 
too moved

>  <fragmenstein_mode>  (373) 
expansion

>  <fragmenstein_error>  (373) 


$$$$
C6664-P94
     RDKit          3D

 36 40  0  0  0  0  0  0  0  0999 V2000
  -11.7046  -23.3753   31.8164 C   0  0  0  0  0  0  0  0  0  0  0  0
  -11.4091  -22.1405   32.3103 C   0  0  0  0  0  0  0  0  0  0  0  0
  -11.2213  -21.0110   31.4811 C   0  0  0  0  0  0  0  0  0  0  0  0
  -11.6448  -20.9784   30.0899 C   0  0  0  0  0  0  0  0  0  0  0  0
  -12.0147  -22.2826   29.6895 C   0  0  0  0  0  0  0  0  0  0  0  0
  -11.9459  -23.4482   30.4758 C   0  0  0  0  0  0  0  0  0  0  0  0
  -12.3275  -22.3395   28.4417 N   0  0  0  0  0  0  0  0  0  0  0  0
  -11.8500  -21.2278   28.0277 C   0  0  0  0  0  0  0  0  0  0  0  0
  -12.1009  -19.7427   28.8814 N   0  0  0  0  0  0  0  0  0  0  0  0
  -11.2248  -17.9148   28.5676 C   0  0  0  0  0  0  0  0  0  0  0  0
   -9.6712  -17.5402   28.0670 C   0  0  0  0  0  0  0  0  0  0  0  0
   -8.5313  -16.2862   27.4295 C   0  0  0  0  0  0  0  0  0  0  0  0
   -8.5165  -14.8961   26.9082 C   0  0  0  0  0  0  0  0  0  0  0  0
   -7.1031  -13.6592   26.1920 C   0  0  0  0  0  0  0  0  0  0  0  0
   -6.5578  -12.6133   26.8153 N   0  0  0  0  0  0  0  0  0  0  0  0
   -6.5990  -11.3545   25.5417 O   0  0  0  0  0  0  0  0  0  0  0  0
   -5.3716  -11.8218   24.4024 C   0  0  0  0  0  0  0  0  0  0  0  0
   -3.7186  -10.9060   23.7636 C   0  0  0  0  0  0  0  0  0  0  0  0
   -3.5747  -10.3410   22.0164 C   0  0  0  0  0  0  0  0  0  0  0  0
   -2.4222   -9.6649   21.5478 C   0  0  0  0  0  0  0  0  0  0  0  0
   -1.9706   -9.3286   22.7114 N   0  0  0  0  0  0  0  0  0  0  0  0
   -3.1523   -9.4399   23.3994 N   0  0  0  0  0  0  0  0  0  0  0  0
   -6.0569  -12.9574   24.7070 N   0  0  0  0  0  0  0  0  0  0  0  0
  -10.1328  -15.2070   27.4560 C   0  0  0  0  0  0  0  0  0  0  0  0
  -11.3530  -16.4365   28.0860 N   0  0  0  0  0  0  0  0  0  0  0  0
  -11.7988  -24.2470   32.4548 H   0  0  0  0  0  0  0  0  0  0  0  0
  -11.3534  -22.0410   33.3866 H   0  0  0  0  0  0  0  0  0  0  0  0
  -10.8669  -20.1653   32.0505 H   0  0  0  0  0  0  0  0  0  0  0  0
  -12.1784  -24.3995   30.0124 H   0  0  0  0  0  0  0  0  0  0  0  0
  -11.4798  -21.2007   27.0130 H   0  0  0  0  0  0  0  0  0  0  0  0
   -8.9453  -18.3612   28.0248 H   0  0  0  0  0  0  0  0  0  0  0  0
   -7.5832  -16.7486   27.6901 H   0  0  0  0  0  0  0  0  0  0  0  0
   -4.1822  -10.7858   21.2311 H   0  0  0  0  0  0  0  0  0  0  0  0
   -1.9621   -9.4594   20.5907 H   0  0  0  0  0  0  0  0  0  0  0  0
   -3.7709   -8.6405   23.3043 H   0  0  0  0  0  0  0  0  0  0  0  0
  -10.7655  -14.2980   27.4445 H   0  0  0  0  0  0  0  0  0  0  0  0
  1  2  2  0
  2  3  1  0
  3  4  2  0
  4  5  1  0
  5  6  2  0
  5  7  1  0
  7  8  2  0
  8  9  1  0
  9 10  1  0
 10 11  2  0
 11 12  1  0
 12 13  2  0
 13 14  1  0
 14 15  2  0
 15 16  1  0
 16 17  1  0
 17 18  1  0
 18 19  2  0
 19 20  1  0
 20 21  2  0
 21 22  1  0
 17 23  2  0
 13 24  1  0
 24 25  2  0
  6  1  1  0
 25 10  1  0
  9  4  1  0
 23 14  1  0
 22 18  1  0
  1 26  1  0
  2 27  1  0
  3 28  1  0
  6 29  1  0
  8 30  1  0
 11 31  1  0
 12 32  1  0
 19 33  1  0
 20 34  1  0
 22 35  1  0
 24 36  1  0
M  END
>  <Energy>  (374) 
1383.0000526929928

>  <compound_id>  (374) 
6664

>  <target_id>  (374) 
1

>  <reference_id>  (374) 
94

>  <inspiration_ids>  (374) 
[94, 122]

>  <energy_score>  (374) 
1262.1712948145353

>  <distance_score>  (374) 
12.21726602114851

>  <path>  (374) 
/opt/xchem-fragalysis-2/maxwin/BulkDock/SCRATCH/511015/C6664-P94/C6664-P94.minimised.mol

>  <scratch_subdir>  (374) 
/opt/xchem-fragalysis-2/maxwin/BulkDock/SCRATCH/511015/C6664-P94

>  <fragmenstein_runtime>  (374) 
18.84838366508484

>  <fragmenstein_outcome>  (374) 
too moved

>  <fragmenstein_mode>  (374) 
expansion

>  <fragmenstein_error>  (374) 


$$$$
C6664-P122
     RDKit          3D

 36 40  0  0  0  0  0  0  0  0999 V2000
  -11.5402  -22.2679   29.6105 C   0  0  0  0  0  0  0  0  0  0  0  0
  -11.5071  -22.4853   28.2720 C   0  0  0  0  0  0  0  0  0  0  0  0
  -10.7751  -21.5760   27.4769 C   0  0  0  0  0  0  0  0  0  0  0  0
   -9.4816  -20.4074   27.7233 C   0  0  0  0  0  0  0  0  0  0  0  0
  -10.0067  -20.4722   29.1109 C   0  0  0  0  0  0  0  0  0  0  0  0
  -10.8054  -21.1980   30.0644 C   0  0  0  0  0  0  0  0  0  0  0  0
   -8.5501  -19.3852   28.6817 N   0  0  0  0  0  0  0  0  0  0  0  0
   -8.3130  -18.1840   28.3707 C   0  0  0  0  0  0  0  0  0  0  0  0
   -9.3358  -18.3694   27.6650 N   0  0  0  0  0  0  0  0  0  0  0  0
   -9.1228  -16.5563   27.1299 C   0  0  0  0  0  0  0  0  0  0  0  0
   -8.7068  -16.0299   25.9461 C   0  0  0  0  0  0  0  0  0  0  0  0
   -7.5945  -14.7224   25.4847 C   0  0  0  0  0  0  0  0  0  0  0  0
   -6.7959  -13.2525   25.8648 C   0  0  0  0  0  0  0  0  0  0  0  0
   -5.7508  -12.1232   24.5129 C   0  0  0  0  0  0  0  0  0  0  0  0
   -6.1853  -11.6323   23.1975 N   0  0  0  0  0  0  0  0  0  0  0  0
   -4.8918  -10.5374   22.2364 O   0  0  0  0  0  0  0  0  0  0  0  0
   -3.6674  -10.2337   22.9646 C   0  0  0  0  0  0  0  0  0  0  0  0
   -2.6155   -9.5615   22.0682 C   0  0  0  0  0  0  0  0  0  0  0  0
   -1.5142   -8.7285   22.1528 C   0  0  0  0  0  0  0  0  0  0  0  0
   -0.9758   -8.6310   20.8496 C   0  0  0  0  0  0  0  0  0  0  0  0
   -1.8211   -9.1366   19.9585 N   0  0  0  0  0  0  0  0  0  0  0  0
   -2.6379   -9.8636   20.7173 N   0  0  0  0  0  0  0  0  0  0  0  0
   -4.0503  -11.3630   24.1880 N   0  0  0  0  0  0  0  0  0  0  0  0
   -7.4723  -13.8196   27.1991 C   0  0  0  0  0  0  0  0  0  0  0  0
   -8.4332  -15.2583   27.7846 N   0  0  0  0  0  0  0  0  0  0  0  0
  -12.1077  -22.8893   30.2903 H   0  0  0  0  0  0  0  0  0  0  0  0
  -12.1267  -23.2247   27.7878 H   0  0  0  0  0  0  0  0  0  0  0  0
  -11.2977  -21.4623   26.5218 H   0  0  0  0  0  0  0  0  0  0  0  0
  -10.7613  -20.9933   31.1307 H   0  0  0  0  0  0  0  0  0  0  0  0
   -7.5361  -17.4494   28.4359 H   0  0  0  0  0  0  0  0  0  0  0  0
   -9.2155  -16.4270   25.0955 H   0  0  0  0  0  0  0  0  0  0  0  0
   -7.2310  -14.9665   24.4987 H   0  0  0  0  0  0  0  0  0  0  0  0
   -1.1283   -8.1892   23.0016 H   0  0  0  0  0  0  0  0  0  0  0  0
   -0.0763   -8.1354   20.5064 H   0  0  0  0  0  0  0  0  0  0  0  0
   -3.2597  -10.5115   20.2492 H   0  0  0  0  0  0  0  0  0  0  0  0
   -7.0807  -13.4480   28.1386 H   0  0  0  0  0  0  0  0  0  0  0  0
  1  2  2  0
  2  3  1  0
  3  4  2  0
  4  5  1  0
  5  6  2  0
  5  7  1  0
  7  8  2  0
  8  9  1  0
  9 10  1  0
 10 11  2  0
 11 12  1  0
 12 13  2  0
 13 14  1  0
 14 15  2  0
 15 16  1  0
 16 17  1  0
 17 18  1  0
 18 19  2  0
 19 20  1  0
 20 21  2  0
 21 22  1  0
 17 23  2  0
 13 24  1  0
 24 25  2  0
  6  1  1  0
 25 10  1  0
  9  4  1  0
 23 14  1  0
 22 18  1  0
  1 26  1  0
  2 27  1  0
  3 28  1  0
  6 29  1  0
  8 30  1  0
 11 31  1  0
 12 32  1  0
 19 33  1  0
 20 34  1  0
 22 35  1  0
 24 36  1  0
M  END
>  <Energy>  (375) 
1483.5957083372407

>  <compound_id>  (375) 
6664

>  <target_id>  (375) 
1

>  <reference_id>  (375) 
122

>  <inspiration_ids>  (375) 
[94, 122]

>  <energy_score>  (375) 
1362.7669504587698

>  <distance_score>  (375) 
11.714857668503543

>  <path>  (375) 
/opt/xchem-fragalysis-2/maxwin/BulkDock/SCRATCH/511015/C6664-P122/C6664-P122.minimised.mol

>  <scratch_subdir>  (375) 
/opt/xchem-fragalysis-2/maxwin/BulkDock/SCRATCH/511015/C6664-P122

>  <fragmenstein_runtime>  (375) 
13.794063806533813

>  <fragmenstein_outcome>  (375) 
too moved

>  <fragmenstein_mode>  (375) 
expansion

>  <fragmenstein_error>  (375) 


$$$$
C35273-P94
     RDKit          3D

 36 39  0  0  0  0  0  0  0  0999 V2000
    1.4819  -14.5600   26.4984 O   0  0  0  0  0  0  0  0  0  0  0  0
    0.7553  -13.7524   26.5741 C   0  0  0  0  0  0  0  0  0  0  0  0
    1.1728  -12.2587   25.5582 N   0  0  0  0  0  0  0  0  0  0  0  0
    2.5287  -11.9360   24.2056 C   0  0  0  0  0  0  0  0  0  0  0  0
    3.0066  -12.9367   23.4917 C   0  0  0  0  0  0  0  0  0  0  0  0
    3.6844  -12.3880   22.3254 C   0  0  0  0  0  0  0  0  0  0  0  0
    4.7158  -11.0245   22.3448 C   0  0  0  0  0  0  0  0  0  0  0  0
    4.5627   -9.8990   23.1906 C   0  0  0  0  0  0  0  0  0  0  0  0
    4.5159   -7.8929   23.1573 C   0  0  0  0  0  0  0  0  0  0  0  0
    4.7366   -7.0468   24.3231 C   0  0  0  0  0  0  0  0  0  0  0  0
    4.9927   -5.7234   23.9255 C   0  0  0  0  0  0  0  0  0  0  0  0
    5.1138   -5.6372   22.6143 N   0  0  0  0  0  0  0  0  0  0  0  0
    5.0844   -6.9214   22.2416 N   0  0  0  0  0  0  0  0  0  0  0  0
    3.2465  -10.4949   23.1126 C   0  0  0  0  0  0  0  0  0  0  0  0
   -1.0154  -14.4720   27.6761 C   0  0  0  0  0  0  0  0  0  0  0  0
   -1.5719  -14.4370   29.2608 C   0  0  0  0  0  0  0  0  0  0  0  0
   -2.8484  -15.0680   30.1917 C   0  0  0  0  0  0  0  0  0  0  0  0
   -3.8181  -16.1850   29.7147 C   0  0  0  0  0  0  0  0  0  0  0  0
   -5.2649  -16.6724   29.9845 N   0  0  0  0  0  0  0  0  0  0  0  0
   -5.8309  -17.7132   28.9726 C   0  0  0  0  0  0  0  0  0  0  0  0
   -4.8004  -17.9522   27.7708 N   0  0  0  0  0  0  0  0  0  0  0  0
   -3.4979  -16.6068   28.1077 C   0  0  0  0  0  0  0  0  0  0  0  0
   -2.1234  -15.6076   27.4614 C   0  0  0  0  0  0  0  0  0  0  0  0
    0.5259  -11.5676   25.7506 H   0  0  0  0  0  0  0  0  0  0  0  0
    2.8557  -13.9848   23.5556 H   0  0  0  0  0  0  0  0  0  0  0  0
    3.7847  -12.9611   21.3845 H   0  0  0  0  0  0  0  0  0  0  0  0
    5.4354  -11.1256   21.5162 H   0  0  0  0  0  0  0  0  0  0  0  0
    4.7248   -7.3800   25.3518 H   0  0  0  0  0  0  0  0  0  0  0  0
    5.1269   -4.8423   24.5387 H   0  0  0  0  0  0  0  0  0  0  0  0
    5.4665   -7.1163   21.3302 H   0  0  0  0  0  0  0  0  0  0  0  0
    2.8760   -9.1977   22.9894 H   0  0  0  0  0  0  0  0  0  0  0  0
   -1.0020  -13.8091   29.9673 H   0  0  0  0  0  0  0  0  0  0  0  0
   -2.9739  -14.6680   31.1981 H   0  0  0  0  0  0  0  0  0  0  0  0
   -5.7365  -16.4867   30.8545 H   0  0  0  0  0  0  0  0  0  0  0  0
   -6.7369  -18.2647   29.1592 H   0  0  0  0  0  0  0  0  0  0  0  0
   -2.2225  -15.3782   26.3745 H   0  0  0  0  0  0  0  0  0  0  0  0
  1  2  2  0
  2  3  1  0
  3  4  1  0
  4  5  2  0
  5  6  1  0
  6  7  2  0
  7  8  1  0
  8  9  1  0
  9 10  2  0
 10 11  1  0
 11 12  2  0
 12 13  1  0
  8 14  2  0
  2 15  1  0
 15 16  2  0
 16 17  1  0
 17 18  2  0
 18 19  1  0
 19 20  1  0
 20 21  2  0
 21 22  1  0
 22 23  2  0
 14  4  1  0
 23 15  1  0
 13  9  1  0
 22 18  1  0
  3 24  1  0
  5 25  1  0
  6 26  1  0
  7 27  1  0
 10 28  1  0
 11 29  1  0
 13 30  1  0
 14 31  1  0
 16 32  1  0
 17 33  1  0
 19 34  1  0
 20 35  1  0
 23 36  1  0
M  END
>  <Energy>  (376) 
1169.8038719418896

>  <compound_id>  (376) 
35273

>  <target_id>  (376) 
1

>  <reference_id>  (376) 
94

>  <inspiration_ids>  (376) 
[94, 122]

>  <energy_score>  (376) 
1101.9644202436357

>  <distance_score>  (376) 
11.88049238507551

>  <path>  (376) 
/opt/xchem-fragalysis-2/maxwin/BulkDock/SCRATCH/511015/C35273-P94/C35273-P94.minimised.mol

>  <scratch_subdir>  (376) 
/opt/xchem-fragalysis-2/maxwin/BulkDock/SCRATCH/511015/C35273-P94

>  <fragmenstein_runtime>  (376) 
33.935426473617554

>  <fragmenstein_outcome>  (376) 
too moved

>  <fragmenstein_mode>  (376) 
expansion

>  <fragmenstein_error>  (376) 


$$$$
C35273-P122
     RDKit          3D

 36 39  0  0  0  0  0  0  0  0999 V2000
   -1.3269  -13.6396   25.4246 O   0  0  0  0  0  0  0  0  0  0  0  0
   -1.1322  -14.4468   24.5379 C   0  0  0  0  0  0  0  0  0  0  0  0
    0.0156  -13.6831   23.0254 N   0  0  0  0  0  0  0  0  0  0  0  0
    0.8120  -11.7485   22.6261 C   0  0  0  0  0  0  0  0  0  0  0  0
    2.6398  -12.1828   22.7406 C   0  0  0  0  0  0  0  0  0  0  0  0
    3.6858  -12.6308   21.2688 C   0  0  0  0  0  0  0  0  0  0  0  0
    3.5911  -12.1005   19.4962 C   0  0  0  0  0  0  0  0  0  0  0  0
    2.2136  -10.4186   19.2820 C   0  0  0  0  0  0  0  0  0  0  0  0
    2.3376   -9.2889   18.0326 C   0  0  0  0  0  0  0  0  0  0  0  0
    1.6012   -8.1789   17.6553 C   0  0  0  0  0  0  0  0  0  0  0  0
    2.4088   -7.4871   16.7197 C   0  0  0  0  0  0  0  0  0  0  0  0
    3.5621   -8.1115   16.4736 N   0  0  0  0  0  0  0  0  0  0  0  0
    3.4655   -9.2189   17.2282 N   0  0  0  0  0  0  0  0  0  0  0  0
    0.9572  -10.5379   20.9849 C   0  0  0  0  0  0  0  0  0  0  0  0
   -2.2785  -16.2000   24.9529 C   0  0  0  0  0  0  0  0  0  0  0  0
   -2.4381  -17.4233   26.2765 C   0  0  0  0  0  0  0  0  0  0  0  0
   -2.7225  -19.3676   26.2433 C   0  0  0  0  0  0  0  0  0  0  0  0
   -4.2371  -20.2408   25.6447 C   0  0  0  0  0  0  0  0  0  0  0  0
   -5.3185  -21.0316   25.7145 N   0  0  0  0  0  0  0  0  0  0  0  0
   -5.7193  -20.8448   24.4701 C   0  0  0  0  0  0  0  0  0  0  0  0
   -5.3746  -19.5738   24.2769 N   0  0  0  0  0  0  0  0  0  0  0  0
   -3.8125  -19.4491   24.7496 C   0  0  0  0  0  0  0  0  0  0  0  0
   -2.5591  -17.8422   25.1152 C   0  0  0  0  0  0  0  0  0  0  0  0
    0.0657  -14.3678   22.2964 H   0  0  0  0  0  0  0  0  0  0  0  0
    2.8352  -12.8918   23.5769 H   0  0  0  0  0  0  0  0  0  0  0  0
    3.5954  -13.6876   21.2388 H   0  0  0  0  0  0  0  0  0  0  0  0
    4.2357  -12.5730   18.7349 H   0  0  0  0  0  0  0  0  0  0  0  0
    0.6494   -7.8751   18.0672 H   0  0  0  0  0  0  0  0  0  0  0  0
    2.1999   -6.5491   16.2214 H   0  0  0  0  0  0  0  0  0  0  0  0
    4.2453   -9.8656   17.2800 H   0  0  0  0  0  0  0  0  0  0  0  0
    0.3602   -9.6099   21.1335 H   0  0  0  0  0  0  0  0  0  0  0  0
   -2.1164  -17.1018   27.2817 H   0  0  0  0  0  0  0  0  0  0  0  0
   -4.2504  -19.6622   26.5401 H   0  0  0  0  0  0  0  0  0  0  0  0
   -5.6065  -21.6715   26.4436 H   0  0  0  0  0  0  0  0  0  0  0  0
   -6.2879  -21.4798   23.7896 H   0  0  0  0  0  0  0  0  0  0  0  0
   -1.4520  -18.4365   25.4414 H   0  0  0  0  0  0  0  0  0  0  0  0
  1  2  2  0
  2  3  1  0
  3  4  1  0
  4  5  2  0
  5  6  1  0
  6  7  2  0
  7  8  1  0
  8  9  1  0
  9 10  2  0
 10 11  1  0
 11 12  2  0
 12 13  1  0
  8 14  2  0
  2 15  1  0
 15 16  2  0
 16 17  1  0
 17 18  2  0
 18 19  1  0
 19 20  1  0
 20 21  2  0
 21 22  1  0
 22 23  2  0
 14  4  1  0
 23 15  1  0
 13  9  1  0
 22 18  1  0
  3 24  1  0
  5 25  1  0
  6 26  1  0
  7 27  1  0
 10 28  1  0
 11 29  1  0
 13 30  1  0
 14 31  1  0
 16 32  1  0
 17 33  1  0
 19 34  1  0
 20 35  1  0
 23 36  1  0
M  END
>  <Energy>  (377) 
2510.4422644134988

>  <compound_id>  (377) 
35273

>  <target_id>  (377) 
1

>  <reference_id>  (377) 
122

>  <inspiration_ids>  (377) 
[94, 122]

>  <energy_score>  (377) 
2442.6028127152767

>  <distance_score>  (377) 
11.566824263027002

>  <path>  (377) 
/opt/xchem-fragalysis-2/maxwin/BulkDock/SCRATCH/511015/C35273-P122/C35273-P122.minimised.mol

>  <scratch_subdir>  (377) 
/opt/xchem-fragalysis-2/maxwin/BulkDock/SCRATCH/511015/C35273-P122

>  <fragmenstein_runtime>  (377) 
33.095430850982666

>  <fragmenstein_outcome>  (377) 
too moved

>  <fragmenstein_mode>  (377) 
expansion

>  <fragmenstein_error>  (377) 


$$$$
C35274-P94
     RDKit          3D

 36 39  0  0  0  0  0  0  0  0999 V2000
    1.1690  -18.7016   21.3411 O   0  0  0  0  0  0  0  0  0  0  0  0
    0.2903  -17.8912   21.1905 C   0  0  0  0  0  0  0  0  0  0  0  0
    0.4330  -16.2916   20.6439 N   0  0  0  0  0  0  0  0  0  0  0  0
    2.0350  -15.1811   20.2161 C   0  0  0  0  0  0  0  0  0  0  0  0
    2.9752  -13.9085   20.8942 C   0  0  0  0  0  0  0  0  0  0  0  0
    4.2247  -13.0328   20.2325 C   0  0  0  0  0  0  0  0  0  0  0  0
    4.5787  -13.1956   18.8809 C   0  0  0  0  0  0  0  0  0  0  0  0
    3.7028  -13.9308   18.0142 C   0  0  0  0  0  0  0  0  0  0  0  0
    3.9717  -13.4710   16.6208 C   0  0  0  0  0  0  0  0  0  0  0  0
    4.4466  -14.0882   15.4834 C   0  0  0  0  0  0  0  0  0  0  0  0
    4.8825  -13.0465   14.6289 C   0  0  0  0  0  0  0  0  0  0  0  0
    4.6996  -11.8381   15.1560 N   0  0  0  0  0  0  0  0  0  0  0  0
    4.1687  -12.1076   16.3599 N   0  0  0  0  0  0  0  0  0  0  0  0
    2.5160  -14.8635   18.5751 C   0  0  0  0  0  0  0  0  0  0  0  0
   -1.1432  -18.5256   21.7358 C   0  0  0  0  0  0  0  0  0  0  0  0
   -1.7603  -19.5711   22.6983 N   0  0  0  0  0  0  0  0  0  0  0  0
   -3.0689  -20.6601   23.1512 C   0  0  0  0  0  0  0  0  0  0  0  0
   -4.7318  -20.9992   24.2262 C   0  0  0  0  0  0  0  0  0  0  0  0
   -5.4568  -20.1292   24.8569 C   0  0  0  0  0  0  0  0  0  0  0  0
   -4.2506  -20.3419   25.0761 C   0  0  0  0  0  0  0  0  0  0  0  0
   -2.6283  -20.7757   24.1614 C   0  0  0  0  0  0  0  0  0  0  0  0
   -1.7054  -20.8441   23.2774 C   0  0  0  0  0  0  0  0  0  0  0  0
   -0.9101  -19.4953   23.2251 N   0  0  0  0  0  0  0  0  0  0  0  0
   -0.4606  -15.9108   20.5420 H   0  0  0  0  0  0  0  0  0  0  0  0
    3.1561  -14.0215   21.9729 H   0  0  0  0  0  0  0  0  0  0  0  0
    4.8407  -12.4099   20.8413 H   0  0  0  0  0  0  0  0  0  0  0  0
    5.4476  -12.6574   18.5105 H   0  0  0  0  0  0  0  0  0  0  0  0
    4.5452  -15.1509   15.3182 H   0  0  0  0  0  0  0  0  0  0  0  0
    5.3360  -13.1296   13.6495 H   0  0  0  0  0  0  0  0  0  0  0  0
    4.0222  -11.3403   17.0176 H   0  0  0  0  0  0  0  0  0  0  0  0
    1.9024  -15.3449   17.8023 H   0  0  0  0  0  0  0  0  0  0  0  0
   -5.6570  -21.4150   23.5734 H   0  0  0  0  0  0  0  0  0  0  0  0
   -6.1001  -20.1292   25.7139 H   0  0  0  0  0  0  0  0  0  0  0  0
   -4.5051  -20.9580   26.0385 H   0  0  0  0  0  0  0  0  0  0  0  0
   -1.9975  -21.5917   24.5235 H   0  0  0  0  0  0  0  0  0  0  0  0
    0.0544  -19.5116   23.5676 H   0  0  0  0  0  0  0  0  0  0  0  0
  1  2  2  0
  2  3  1  0
  3  4  1  0
  4  5  2  0
  5  6  1  0
  6  7  2  0
  7  8  1  0
  8  9  1  0
  9 10  2  0
 10 11  1  0
 11 12  2  0
 12 13  1  0
  8 14  2  0
  2 15  1  0
 15 16  2  0
 16 17  1  0
 17 18  2  0
 18 19  1  0
 19 20  2  0
 20 21  1  0
 21 22  2  0
 22 23  1  0
 14  4  1  0
 23 15  1  0
 13  9  1  0
 22 17  1  0
  3 24  1  0
  5 25  1  0
  6 26  1  0
  7 27  1  0
 10 28  1  0
 11 29  1  0
 13 30  1  0
 14 31  1  0
 18 32  1  0
 19 33  1  0
 20 34  1  0
 21 35  1  0
 23 36  1  0
M  END
>  <Energy>  (378) 
1494.6641393452755

>  <compound_id>  (378) 
35274

>  <target_id>  (378) 
1

>  <reference_id>  (378) 
94

>  <inspiration_ids>  (378) 
[94, 122]

>  <energy_score>  (378) 
1432.9737631849705

>  <distance_score>  (378) 
13.261006883021247

>  <path>  (378) 
/opt/xchem-fragalysis-2/maxwin/BulkDock/SCRATCH/511015/C35274-P94/C35274-P94.minimised.mol

>  <scratch_subdir>  (378) 
/opt/xchem-fragalysis-2/maxwin/BulkDock/SCRATCH/511015/C35274-P94

>  <fragmenstein_runtime>  (378) 
23.50142002105713

>  <fragmenstein_outcome>  (378) 
too moved

>  <fragmenstein_mode>  (378) 
expansion

>  <fragmenstein_error>  (378) 


$$$$
C35274-P122
     RDKit          3D

 36 39  0  0  0  0  0  0  0  0999 V2000
   -0.9842  -13.5145   25.4844 O   0  0  0  0  0  0  0  0  0  0  0  0
   -0.6519  -14.3192   24.6230 C   0  0  0  0  0  0  0  0  0  0  0  0
    1.0746  -14.1945   23.7283 N   0  0  0  0  0  0  0  0  0  0  0  0
    2.5971  -13.0675   24.0128 C   0  0  0  0  0  0  0  0  0  0  0  0
    3.8542  -13.7816   25.0304 C   0  0  0  0  0  0  0  0  0  0  0  0
    5.4210  -13.0938   25.6434 C   0  0  0  0  0  0  0  0  0  0  0  0
    6.1887  -12.0030   24.9504 C   0  0  0  0  0  0  0  0  0  0  0  0
    5.5129  -11.4296   23.6176 C   0  0  0  0  0  0  0  0  0  0  0  0
    6.6591  -10.6482   22.9481 C   0  0  0  0  0  0  0  0  0  0  0  0
    7.5704  -10.9350   21.9264 C   0  0  0  0  0  0  0  0  0  0  0  0
    8.5121   -9.8810   21.9143 C   0  0  0  0  0  0  0  0  0  0  0  0
    8.2763   -9.0036   22.8869 N   0  0  0  0  0  0  0  0  0  0  0  0
    7.2217   -9.5203   23.5420 N   0  0  0  0  0  0  0  0  0  0  0  0
    3.7773  -12.2049   23.0128 C   0  0  0  0  0  0  0  0  0  0  0  0
   -1.9420  -15.6637   24.5505 C   0  0  0  0  0  0  0  0  0  0  0  0
   -1.9554  -17.1969   25.1418 N   0  0  0  0  0  0  0  0  0  0  0  0
   -2.2385  -18.0467   26.2899 C   0  0  0  0  0  0  0  0  0  0  0  0
   -2.7686  -19.4381   25.7342 C   0  0  0  0  0  0  0  0  0  0  0  0
   -4.5146  -20.1402   25.4511 C   0  0  0  0  0  0  0  0  0  0  0  0
   -5.5484  -19.6349   26.4282 C   0  0  0  0  0  0  0  0  0  0  0  0
   -4.8598  -18.2546   27.4433 C   0  0  0  0  0  0  0  0  0  0  0  0
   -3.2452  -17.2458   27.0291 C   0  0  0  0  0  0  0  0  0  0  0  0
   -2.9875  -16.3301   25.4169 N   0  0  0  0  0  0  0  0  0  0  0  0
    1.1222  -14.8511   23.0314 H   0  0  0  0  0  0  0  0  0  0  0  0
    3.6704  -14.4923   25.8205 H   0  0  0  0  0  0  0  0  0  0  0  0
    5.6901  -13.1913   26.6882 H   0  0  0  0  0  0  0  0  0  0  0  0
    7.1324  -11.6360   25.3402 H   0  0  0  0  0  0  0  0  0  0  0  0
    7.5376  -11.7656   21.2367 H   0  0  0  0  0  0  0  0  0  0  0  0
    9.3437   -9.7215   21.2392 H   0  0  0  0  0  0  0  0  0  0  0  0
    6.9002   -9.0400   24.3751 H   0  0  0  0  0  0  0  0  0  0  0  0
    3.6629  -12.2545   21.9445 H   0  0  0  0  0  0  0  0  0  0  0  0
   -2.2590  -19.8765   24.8972 H   0  0  0  0  0  0  0  0  0  0  0  0
   -4.7372  -21.0092   24.8616 H   0  0  0  0  0  0  0  0  0  0  0  0
   -6.4455  -20.1720   26.6717 H   0  0  0  0  0  0  0  0  0  0  0  0
   -5.4423  -17.8754   28.3084 H   0  0  0  0  0  0  0  0  0  0  0  0
   -3.8255  -16.0679   24.9645 H   0  0  0  0  0  0  0  0  0  0  0  0
  1  2  2  0
  2  3  1  0
  3  4  1  0
  4  5  2  0
  5  6  1  0
  6  7  2  0
  7  8  1  0
  8  9  1  0
  9 10  2  0
 10 11  1  0
 11 12  2  0
 12 13  1  0
  8 14  2  0
  2 15  1  0
 15 16  2  0
 16 17  1  0
 17 18  2  0
 18 19  1  0
 19 20  2  0
 20 21  1  0
 21 22  2  0
 22 23  1  0
 14  4  1  0
 23 15  1  0
 13  9  1  0
 22 17  1  0
  3 24  1  0
  5 25  1  0
  6 26  1  0
  7 27  1  0
 10 28  1  0
 11 29  1  0
 13 30  1  0
 14 31  1  0
 18 32  1  0
 19 33  1  0
 20 34  1  0
 21 35  1  0
 23 36  1  0
M  END
>  <Energy>  (379) 
1194.0051450180604

>  <compound_id>  (379) 
35274

>  <target_id>  (379) 
1

>  <reference_id>  (379) 
122

>  <inspiration_ids>  (379) 
[94, 122]

>  <energy_score>  (379) 
1132.3147688577574

>  <distance_score>  (379) 
12.058921700956887

>  <path>  (379) 
/opt/xchem-fragalysis-2/maxwin/BulkDock/SCRATCH/511015/C35274-P122/C35274-P122.minimised.mol

>  <scratch_subdir>  (379) 
/opt/xchem-fragalysis-2/maxwin/BulkDock/SCRATCH/511015/C35274-P122

>  <fragmenstein_runtime>  (379) 
25.194389820098877

>  <fragmenstein_outcome>  (379) 
too moved

>  <fragmenstein_mode>  (379) 
expansion

>  <fragmenstein_error>  (379) 


$$$$
C5992-P94
     RDKit          3D

 34 37  0  0  0  0  0  0  0  0999 V2000
   -2.6478  -16.4229   31.9652 C   0  0  0  0  0  0  0  0  0  0  0  0
   -1.4226  -16.1130   32.5381 C   0  0  0  0  0  0  0  0  0  0  0  0
   -0.4139  -15.6087   31.6775 C   0  0  0  0  0  0  0  0  0  0  0  0
   -0.7005  -15.2921   30.2575 C   0  0  0  0  0  0  0  0  0  0  0  0
   -0.0495  -15.6005   29.0039 N   0  0  0  0  0  0  0  0  0  0  0  0
   -0.5536  -14.6103   27.6614 C   0  0  0  0  0  0  0  0  0  0  0  0
    0.6505  -13.5652   26.6504 N   0  0  0  0  0  0  0  0  0  0  0  0
    1.9167  -13.8017   26.0684 C   0  0  0  0  0  0  0  0  0  0  0  0
    2.8109  -13.3921   24.3747 C   0  0  0  0  0  0  0  0  0  0  0  0
    2.3824  -12.0411   24.0261 C   0  0  0  0  0  0  0  0  0  0  0  0
    3.7090  -10.9772   22.8463 C   0  0  0  0  0  0  0  0  0  0  0  0
    5.1798  -10.5447   22.6484 C   0  0  0  0  0  0  0  0  0  0  0  0
    5.4312   -9.4694   21.7855 C   0  0  0  0  0  0  0  0  0  0  0  0
    4.3102   -8.8715   21.5052 N   0  0  0  0  0  0  0  0  0  0  0  0
    3.3887   -9.5939   22.1596 N   0  0  0  0  0  0  0  0  0  0  0  0
    1.2938  -12.0374   25.8205 C   0  0  0  0  0  0  0  0  0  0  0  0
   -1.8550  -14.9242   28.0168 N   0  0  0  0  0  0  0  0  0  0  0  0
   -1.9630  -15.0852   29.6392 C   0  0  0  0  0  0  0  0  0  0  0  0
   -2.9476  -15.9146   30.5422 C   0  0  0  0  0  0  0  0  0  0  0  0
   -3.3881  -17.0219   32.4919 H   0  0  0  0  0  0  0  0  0  0  0  0
   -1.1826  -16.4306   33.5472 H   0  0  0  0  0  0  0  0  0  0  0  0
    0.6125  -15.7046   32.0250 H   0  0  0  0  0  0  0  0  0  0  0  0
    0.8476  -16.0610   28.9484 H   0  0  0  0  0  0  0  0  0  0  0  0
    1.0926  -14.0203   25.3996 H   0  0  0  0  0  0  0  0  0  0  0  0
    2.6273  -14.1327   26.8269 H   0  0  0  0  0  0  0  0  0  0  0  0
    3.8307  -13.6411   24.6442 H   0  0  0  0  0  0  0  0  0  0  0  0
    2.7208  -14.0786   23.5279 H   0  0  0  0  0  0  0  0  0  0  0  0
    1.5785  -11.8978   23.3445 H   0  0  0  0  0  0  0  0  0  0  0  0
    6.0654  -10.9320   23.1564 H   0  0  0  0  0  0  0  0  0  0  0  0
    6.3737   -9.0576   21.4514 H   0  0  0  0  0  0  0  0  0  0  0  0
    2.4153   -9.3526   22.0095 H   0  0  0  0  0  0  0  0  0  0  0  0
    0.4101  -11.5604   25.8404 H   0  0  0  0  0  0  0  0  0  0  0  0
    1.5835  -11.4239   26.7191 H   0  0  0  0  0  0  0  0  0  0  0  0
   -3.8434  -16.2718   30.0335 H   0  0  0  0  0  0  0  0  0  0  0  0
  1  2  2  0
  2  3  1  0
  3  4  2  0
  4  5  1  0
  5  6  1  0
  6  7  1  0
  7  8  1  0
  8  9  1  0
  9 10  1  0
 10 11  1  0
 11 12  2  0
 12 13  1  0
 13 14  2  0
 14 15  1  0
 10 16  1  0
  6 17  2  0
 17 18  1  0
 18 19  2  0
 19  1  1  0
 18  4  1  0
 16  7  1  0
 15 11  1  0
  1 20  1  0
  2 21  1  0
  3 22  1  0
  5 23  1  0
  8 24  1  0
  8 25  1  0
  9 26  1  0
  9 27  1  0
 10 28  1  0
 12 29  1  0
 13 30  1  0
 15 31  1  0
 16 32  1  0
 16 33  1  0
 19 34  1  0
M  END
>  <Energy>  (380) 
813.45983865466872

>  <compound_id>  (380) 
5992

>  <target_id>  (380) 
1

>  <reference_id>  (380) 
94

>  <inspiration_ids>  (380) 
[94, 122]

>  <energy_score>  (380) 
771.3755797640448

>  <distance_score>  (380) 
13.884371168212935

>  <path>  (380) 
/opt/xchem-fragalysis-2/maxwin/BulkDock/SCRATCH/511015/C5992-P94/C5992-P94.minimised.mol

>  <scratch_subdir>  (380) 
/opt/xchem-fragalysis-2/maxwin/BulkDock/SCRATCH/511015/C5992-P94

>  <fragmenstein_runtime>  (380) 
16.340359687805176

>  <fragmenstein_outcome>  (380) 
too moved

>  <fragmenstein_mode>  (380) 
expansion

>  <fragmenstein_error>  (380) 


$$$$
C5992-P122
     RDKit          3D

 34 37  0  0  0  0  0  0  0  0999 V2000
   -3.8730  -19.2547   18.6630 C   0  0  0  0  0  0  0  0  0  0  0  0
   -3.9365  -18.1680   17.8561 C   0  0  0  0  0  0  0  0  0  0  0  0
   -3.0634  -17.1010   18.0912 C   0  0  0  0  0  0  0  0  0  0  0  0
   -2.2566  -16.9796   19.2666 C   0  0  0  0  0  0  0  0  0  0  0  0
   -1.4811  -16.0187   19.9003 N   0  0  0  0  0  0  0  0  0  0  0  0
   -0.3234  -16.4625   20.8553 C   0  0  0  0  0  0  0  0  0  0  0  0
    0.8306  -15.3379   21.5737 N   0  0  0  0  0  0  0  0  0  0  0  0
    1.2527  -14.5831   23.3037 C   0  0  0  0  0  0  0  0  0  0  0  0
    2.8994  -13.6169   23.2618 C   0  0  0  0  0  0  0  0  0  0  0  0
    3.3386  -13.4823   21.4047 C   0  0  0  0  0  0  0  0  0  0  0  0
    4.7584  -12.7622   20.4709 C   0  0  0  0  0  0  0  0  0  0  0  0
    5.2802  -13.0503   19.1945 C   0  0  0  0  0  0  0  0  0  0  0  0
    6.2663  -12.0900   18.8839 C   0  0  0  0  0  0  0  0  0  0  0  0
    6.3676  -11.1640   19.8270 N   0  0  0  0  0  0  0  0  0  0  0  0
    5.4435  -11.5390   20.7258 N   0  0  0  0  0  0  0  0  0  0  0  0
    2.2153  -14.6027   20.5059 C   0  0  0  0  0  0  0  0  0  0  0  0
   -0.8343  -17.7170   21.0171 N   0  0  0  0  0  0  0  0  0  0  0  0
   -2.0651  -18.0412   20.0495 C   0  0  0  0  0  0  0  0  0  0  0  0
   -2.8803  -19.2285   19.6303 C   0  0  0  0  0  0  0  0  0  0  0  0
   -4.4531  -20.1500   18.4745 H   0  0  0  0  0  0  0  0  0  0  0  0
   -4.5732  -18.1697   16.9763 H   0  0  0  0  0  0  0  0  0  0  0  0
   -2.9839  -16.3933   17.2674 H   0  0  0  0  0  0  0  0  0  0  0  0
   -1.6020  -15.0754   19.6253 H   0  0  0  0  0  0  0  0  0  0  0  0
    0.1916  -14.0908   23.0743 H   0  0  0  0  0  0  0  0  0  0  0  0
    0.6804  -14.3745   24.2493 H   0  0  0  0  0  0  0  0  0  0  0  0
    2.7577  -12.6130   23.6634 H   0  0  0  0  0  0  0  0  0  0  0  0
    3.5423  -14.2694   23.8571 H   0  0  0  0  0  0  0  0  0  0  0  0
    3.5003  -14.4548   21.7616 H   0  0  0  0  0  0  0  0  0  0  0  0
    4.9793  -13.8641   18.5491 H   0  0  0  0  0  0  0  0  0  0  0  0
    6.8874  -12.0251   18.0000 H   0  0  0  0  0  0  0  0  0  0  0  0
    5.2535  -10.8887   21.4819 H   0  0  0  0  0  0  0  0  0  0  0  0
    2.3598  -14.5633   19.3822 H   0  0  0  0  0  0  0  0  0  0  0  0
    2.5220  -15.5205   20.4506 H   0  0  0  0  0  0  0  0  0  0  0  0
   -2.7245  -20.2136   20.0698 H   0  0  0  0  0  0  0  0  0  0  0  0
  1  2  2  0
  2  3  1  0
  3  4  2  0
  4  5  1  0
  5  6  1  0
  6  7  1  0
  7  8  1  0
  8  9  1  0
  9 10  1  0
 10 11  1  0
 11 12  2  0
 12 13  1  0
 13 14  2  0
 14 15  1  0
 10 16  1  0
  6 17  2  0
 17 18  1  0
 18 19  2  0
 19  1  1  0
 18  4  1  0
 16  7  1  0
 15 11  1  0
  1 20  1  0
  2 21  1  0
  3 22  1  0
  5 23  1  0
  8 24  1  0
  8 25  1  0
  9 26  1  0
  9 27  1  0
 10 28  1  0
 12 29  1  0
 13 30  1  0
 15 31  1  0
 16 32  1  0
 16 33  1  0
 19 34  1  0
M  END
>  <Energy>  (381) 
522.73696886504899

>  <compound_id>  (381) 
5992

>  <target_id>  (381) 
1

>  <reference_id>  (381) 
122

>  <inspiration_ids>  (381) 
[94, 122]

>  <energy_score>  (381) 
480.652709974431

>  <distance_score>  (381) 
15.470630741783888

>  <path>  (381) 
/opt/xchem-fragalysis-2/maxwin/BulkDock/SCRATCH/511015/C5992-P122/C5992-P122.minimised.mol

>  <scratch_subdir>  (381) 
/opt/xchem-fragalysis-2/maxwin/BulkDock/SCRATCH/511015/C5992-P122

>  <fragmenstein_runtime>  (381) 
24.821860313415527

>  <fragmenstein_outcome>  (381) 
too moved

>  <fragmenstein_mode>  (381) 
expansion

>  <fragmenstein_error>  (381) 


$$$$
C35275-P94
     RDKit          3D

 34 37  0  0  0  0  0  0  0  0999 V2000
   -7.8513  -25.0927   28.8658 Cl  0  0  0  0  0  0  0  0  0  0  0  0
   -6.0398  -23.6379   28.0322 C   0  0  0  0  0  0  0  0  0  0  0  0
   -4.4351  -23.7155   28.3706 C   0  0  0  0  0  0  0  0  0  0  0  0
   -3.2636  -22.8057   28.1404 C   0  0  0  0  0  0  0  0  0  0  0  0
   -3.3332  -21.6124   27.4030 C   0  0  0  0  0  0  0  0  0  0  0  0
   -2.3013  -20.5147   27.1873 N   0  0  0  0  0  0  0  0  0  0  0  0
   -2.6269  -19.5417   26.2607 C   0  0  0  0  0  0  0  0  0  0  0  0
   -2.1092  -17.8368   25.8768 N   0  0  0  0  0  0  0  0  0  0  0  0
   -2.3075  -16.7797   27.0302 C   0  0  0  0  0  0  0  0  0  0  0  0
   -1.9685  -14.9191   26.3151 C   0  0  0  0  0  0  0  0  0  0  0  0
   -1.0178  -14.7892   24.5870 C   0  0  0  0  0  0  0  0  0  0  0  0
    0.8735  -14.1619   24.0547 C   0  0  0  0  0  0  0  0  0  0  0  0
    1.9944  -12.8848   24.3061 C   0  0  0  0  0  0  0  0  0  0  0  0
    3.3213  -12.8149   23.6799 C   0  0  0  0  0  0  0  0  0  0  0  0
    3.6660  -14.0675   23.7790 N   0  0  0  0  0  0  0  0  0  0  0  0
    2.4884  -14.5269   23.2831 N   0  0  0  0  0  0  0  0  0  0  0  0
   -2.2955  -16.2775   24.7774 C   0  0  0  0  0  0  0  0  0  0  0  0
   -4.0349  -20.4282   25.8273 N   0  0  0  0  0  0  0  0  0  0  0  0
   -4.5539  -21.4734   26.7609 C   0  0  0  0  0  0  0  0  0  0  0  0
   -5.9439  -22.4418   27.0809 C   0  0  0  0  0  0  0  0  0  0  0  0
   -3.9916  -24.6215   28.7728 H   0  0  0  0  0  0  0  0  0  0  0  0
   -2.3069  -23.0850   28.5783 H   0  0  0  0  0  0  0  0  0  0  0  0
   -1.4338  -17.0106   27.5960 H   0  0  0  0  0  0  0  0  0  0  0  0
   -3.2176  -16.8977   27.5962 H   0  0  0  0  0  0  0  0  0  0  0  0
   -2.6972  -14.1514   26.2304 H   0  0  0  0  0  0  0  0  0  0  0  0
   -1.4336  -14.7435   27.2650 H   0  0  0  0  0  0  0  0  0  0  0  0
   -1.3100  -14.9154   23.5473 H   0  0  0  0  0  0  0  0  0  0  0  0
    1.6824  -12.0381   24.8657 H   0  0  0  0  0  0  0  0  0  0  0  0
    4.0506  -12.0292   23.5539 H   0  0  0  0  0  0  0  0  0  0  0  0
    2.5574  -14.2404   22.3150 H   0  0  0  0  0  0  0  0  0  0  0  0
   -3.2209  -15.9564   25.1428 H   0  0  0  0  0  0  0  0  0  0  0  0
   -2.9635  -15.9785   23.9469 H   0  0  0  0  0  0  0  0  0  0  0  0
   -4.6807  -19.8697   25.3195 H   0  0  0  0  0  0  0  0  0  0  0  0
   -6.8199  -22.1492   26.5360 H   0  0  0  0  0  0  0  0  0  0  0  0
  1  2  1  0
  2  3  2  0
  3  4  1  0
  4  5  2  0
  5  6  1  0
  6  7  2  0
  7  8  1  0
  8  9  1  0
  9 10  1  0
 10 11  1  0
 11 12  1  0
 12 13  2  0
 13 14  1  0
 14 15  2  0
 15 16  1  0
 11 17  1  0
  7 18  1  0
 18 19  1  0
 19 20  2  0
 20  2  1  0
 19  5  1  0
 17  8  1  0
 16 12  1  0
  3 21  1  0
  4 22  1  0
  9 23  1  0
  9 24  1  0
 10 25  1  0
 10 26  1  0
 11 27  1  0
 13 28  1  0
 14 29  1  0
 16 30  1  0
 17 31  1  0
 17 32  1  0
 18 33  1  0
 20 34  1  0
M  END
>  <Energy>  (382) 
1102.6622920144216

>  <compound_id>  (382) 
35275

>  <target_id>  (382) 
1

>  <reference_id>  (382) 
94

>  <inspiration_ids>  (382) 
[94, 122]

>  <energy_score>  (382) 
1071.3481914490903

>  <distance_score>  (382) 
13.378057750538012

>  <path>  (382) 
/opt/xchem-fragalysis-2/maxwin/BulkDock/SCRATCH/511015/C35275-P94/C35275-P94.minimised.mol

>  <scratch_subdir>  (382) 
/opt/xchem-fragalysis-2/maxwin/BulkDock/SCRATCH/511015/C35275-P94

>  <fragmenstein_runtime>  (382) 
23.102261304855347

>  <fragmenstein_outcome>  (382) 
too moved

>  <fragmenstein_mode>  (382) 
expansion

>  <fragmenstein_error>  (382) 


$$$$
C35275-P122
     RDKit          3D

 34 37  0  0  0  0  0  0  0  0999 V2000
   -3.7976  -21.6594   24.9684 Cl  0  0  0  0  0  0  0  0  0  0  0  0
   -2.4920  -20.5559   24.7491 C   0  0  0  0  0  0  0  0  0  0  0  0
   -2.1208  -19.3882   25.9862 C   0  0  0  0  0  0  0  0  0  0  0  0
   -0.5372  -18.5749   26.0228 C   0  0  0  0  0  0  0  0  0  0  0  0
    0.7714  -19.0045   24.7171 C   0  0  0  0  0  0  0  0  0  0  0  0
    2.5396  -18.8214   24.6259 N   0  0  0  0  0  0  0  0  0  0  0  0
    3.1726  -19.5390   23.6267 C   0  0  0  0  0  0  0  0  0  0  0  0
    4.5176  -19.4227   23.2730 N   0  0  0  0  0  0  0  0  0  0  0  0
    5.1407  -20.0515   22.1264 C   0  0  0  0  0  0  0  0  0  0  0  0
    6.1720  -19.0321   21.5910 C   0  0  0  0  0  0  0  0  0  0  0  0
    6.5753  -18.1228   22.7691 C   0  0  0  0  0  0  0  0  0  0  0  0
    7.1588  -16.7448   22.3410 C   0  0  0  0  0  0  0  0  0  0  0  0
    7.9120  -16.3619   21.2330 C   0  0  0  0  0  0  0  0  0  0  0  0
    8.1765  -14.9846   21.3833 C   0  0  0  0  0  0  0  0  0  0  0  0
    7.6586  -14.5061   22.5124 N   0  0  0  0  0  0  0  0  0  0  0  0
    7.0690  -15.5820   23.0814 N   0  0  0  0  0  0  0  0  0  0  0  0
    5.3012  -18.2108   23.6929 C   0  0  0  0  0  0  0  0  0  0  0  0
    1.9450  -20.2957   22.6386 N   0  0  0  0  0  0  0  0  0  0  0  0
    0.3902  -20.0708   23.5541 C   0  0  0  0  0  0  0  0  0  0  0  0
   -1.2927  -20.8562   23.5130 C   0  0  0  0  0  0  0  0  0  0  0  0
   -2.7288  -19.4684   26.8714 H   0  0  0  0  0  0  0  0  0  0  0  0
   -0.2582  -18.0526   26.9292 H   0  0  0  0  0  0  0  0  0  0  0  0
    5.6520  -20.9643   22.4508 H   0  0  0  0  0  0  0  0  0  0  0  0
    4.4274  -20.3192   21.3399 H   0  0  0  0  0  0  0  0  0  0  0  0
    5.7231  -18.4618   20.7738 H   0  0  0  0  0  0  0  0  0  0  0  0
    7.0407  -19.5451   21.1629 H   0  0  0  0  0  0  0  0  0  0  0  0
    7.3878  -18.6304   23.3095 H   0  0  0  0  0  0  0  0  0  0  0  0
    8.2207  -16.9995   20.4165 H   0  0  0  0  0  0  0  0  0  0  0  0
    8.7222  -14.3222   20.7241 H   0  0  0  0  0  0  0  0  0  0  0  0
    6.6015  -15.4476   23.9723 H   0  0  0  0  0  0  0  0  0  0  0  0
    4.6976  -17.3046   23.6260 H   0  0  0  0  0  0  0  0  0  0  0  0
    5.6092  -18.3223   24.7390 H   0  0  0  0  0  0  0  0  0  0  0  0
    1.9062  -19.7620   21.8020 H   0  0  0  0  0  0  0  0  0  0  0  0
   -1.3289  -21.8514   23.0531 H   0  0  0  0  0  0  0  0  0  0  0  0
  1  2  1  0
  2  3  2  0
  3  4  1  0
  4  5  2  0
  5  6  1  0
  6  7  2  0
  7  8  1  0
  8  9  1  0
  9 10  1  0
 10 11  1  0
 11 12  1  0
 12 13  2  0
 13 14  1  0
 14 15  2  0
 15 16  1  0
 11 17  1  0
  7 18  1  0
 18 19  1  0
 19 20  2  0
 20  2  1  0
 19  5  1  0
 17  8  1  0
 16 12  1  0
  3 21  1  0
  4 22  1  0
  9 23  1  0
  9 24  1  0
 10 25  1  0
 10 26  1  0
 11 27  1  0
 13 28  1  0
 14 29  1  0
 16 30  1  0
 17 31  1  0
 17 32  1  0
 18 33  1  0
 20 34  1  0
M  END
>  <Energy>  (383) 
388.80881872520871

>  <compound_id>  (383) 
35275

>  <target_id>  (383) 
1

>  <reference_id>  (383) 
122

>  <inspiration_ids>  (383) 
[94, 122]

>  <energy_score>  (383) 
357.4947181598609

>  <distance_score>  (383) 
15.246202593286434

>  <path>  (383) 
/opt/xchem-fragalysis-2/maxwin/BulkDock/SCRATCH/511015/C35275-P122/C35275-P122.minimised.mol

>  <scratch_subdir>  (383) 
/opt/xchem-fragalysis-2/maxwin/BulkDock/SCRATCH/511015/C35275-P122

>  <fragmenstein_runtime>  (383) 
27.104182243347168

>  <fragmenstein_outcome>  (383) 
too moved

>  <fragmenstein_mode>  (383) 
expansion

>  <fragmenstein_error>  (383) 


$$$$
C35276-P94
     RDKit          3D

 41 45  0  0  0  0  0  0  0  0999 V2000
   -5.8770  -23.4811   22.0962 C   0  0  0  0  0  0  0  0  0  0  0  0
   -7.0637  -22.7587   22.1578 C   0  0  0  0  0  0  0  0  0  0  0  0
   -7.2317  -21.5920   21.4061 C   0  0  0  0  0  0  0  0  0  0  0  0
   -6.1454  -21.1330   20.6290 C   0  0  0  0  0  0  0  0  0  0  0  0
   -4.9609  -21.8581   20.5251 C   0  0  0  0  0  0  0  0  0  0  0  0
   -4.8324  -23.0567   21.2616 C   0  0  0  0  0  0  0  0  0  0  0  0
   -4.0338  -21.2092   19.7074 N   0  0  0  0  0  0  0  0  0  0  0  0
   -4.5490  -20.0308   19.3761 C   0  0  0  0  0  0  0  0  0  0  0  0
   -3.9800  -19.0481   18.5233 N   0  0  0  0  0  0  0  0  0  0  0  0
   -3.6247  -19.5345   17.1612 C   0  0  0  0  0  0  0  0  0  0  0  0
   -2.3116  -18.8199   16.7338 C   0  0  0  0  0  0  0  0  0  0  0  0
   -2.2530  -17.5543   17.5892 C   0  0  0  0  0  0  0  0  0  0  0  0
   -0.9344  -16.7463   17.4847 C   0  0  0  0  0  0  0  0  0  0  0  0
   -0.6590  -15.5621   16.7987 C   0  0  0  0  0  0  0  0  0  0  0  0
    0.7301  -15.3452   16.9075 C   0  0  0  0  0  0  0  0  0  0  0  0
    1.3152  -16.2954   17.6356 N   0  0  0  0  0  0  0  0  0  0  0  0
    0.2912  -17.1038   18.0059 N   0  0  0  0  0  0  0  0  0  0  0  0
   -2.7873  -18.1856   18.9286 C   0  0  0  0  0  0  0  0  0  0  0  0
   -5.8526  -19.9579   19.9424 N   0  0  0  0  0  0  0  0  0  0  0  0
   -6.7253  -18.7382   19.9359 C   0  0  0  0  0  0  0  0  0  0  0  0
   -7.7115  -18.3556   21.0248 C   0  0  0  0  0  0  0  0  0  0  0  0
   -8.2128  -18.8069   19.6808 C   0  0  0  0  0  0  0  0  0  0  0  0
   -5.7505  -24.3782   22.6961 H   0  0  0  0  0  0  0  0  0  0  0  0
   -7.8692  -23.0900   22.8062 H   0  0  0  0  0  0  0  0  0  0  0  0
   -8.1619  -21.0450   21.4766 H   0  0  0  0  0  0  0  0  0  0  0  0
   -3.9021  -23.6113   21.2091 H   0  0  0  0  0  0  0  0  0  0  0  0
   -4.4363  -19.2612   16.4776 H   0  0  0  0  0  0  0  0  0  0  0  0
   -3.4883  -20.6212   17.1159 H   0  0  0  0  0  0  0  0  0  0  0  0
   -1.4532  -19.4700   16.9465 H   0  0  0  0  0  0  0  0  0  0  0  0
   -2.3044  -18.6061   15.6600 H   0  0  0  0  0  0  0  0  0  0  0  0
   -3.0419  -16.8880   17.2134 H   0  0  0  0  0  0  0  0  0  0  0  0
   -1.3714  -14.9638   16.2480 H   0  0  0  0  0  0  0  0  0  0  0  0
    1.3302  -14.5477   16.4896 H   0  0  0  0  0  0  0  0  0  0  0  0
    0.5099  -17.9071   18.5875 H   0  0  0  0  0  0  0  0  0  0  0  0
   -2.0142  -18.8032   19.3966 H   0  0  0  0  0  0  0  0  0  0  0  0
   -3.0916  -17.3910   19.6093 H   0  0  0  0  0  0  0  0  0  0  0  0
   -6.2062  -17.9022   19.4741 H   0  0  0  0  0  0  0  0  0  0  0  0
   -7.7946  -18.9845   21.8980 H   0  0  0  0  0  0  0  0  0  0  0  0
   -7.8274  -17.3048   21.2585 H   0  0  0  0  0  0  0  0  0  0  0  0
   -8.6844  -19.7777   19.5948 H   0  0  0  0  0  0  0  0  0  0  0  0
   -8.6385  -18.0618   19.0177 H   0  0  0  0  0  0  0  0  0  0  0  0
  1  2  2  0
  2  3  1  0
  3  4  2  0
  4  5  1  0
  5  6  2  0
  5  7  1  0
  7  8  2  0
  8  9  1  0
  9 10  1  0
 10 11  1  0
 11 12  1  0
 12 13  1  0
 13 14  2  0
 14 15  1  0
 15 16  2  0
 16 17  1  0
 12 18  1  0
  8 19  1  0
 19 20  1  0
 20 21  1  0
 21 22  1  0
  6  1  1  0
 18  9  1  0
 22 20  1  0
 19  4  1  0
 17 13  1  0
  1 23  1  0
  2 24  1  0
  3 25  1  0
  6 26  1  0
 10 27  1  0
 10 28  1  0
 11 29  1  0
 11 30  1  0
 12 31  1  0
 14 32  1  0
 15 33  1  0
 17 34  1  0
 18 35  1  0
 18 36  1  0
 20 37  1  0
 21 38  1  0
 21 39  1  0
 22 40  1  0
 22 41  1  0
M  END
>  <Energy>  (384) 
86.960241757070634

>  <compound_id>  (384) 
35276

>  <target_id>  (384) 
1

>  <reference_id>  (384) 
94

>  <inspiration_ids>  (384) 
[94, 122]

>  <energy_score>  (384) 
-29.29239718524127

>  <distance_score>  (384) 
15.441908956202795

>  <path>  (384) 
/opt/xchem-fragalysis-2/maxwin/BulkDock/SCRATCH/511015/C35276-P94/C35276-P94.minimised.mol

>  <scratch_subdir>  (384) 
/opt/xchem-fragalysis-2/maxwin/BulkDock/SCRATCH/511015/C35276-P94

>  <fragmenstein_runtime>  (384) 
17.64878559112549

>  <fragmenstein_outcome>  (384) 
too moved

>  <fragmenstein_mode>  (384) 
expansion

>  <fragmenstein_error>  (384) 


$$$$
C35276-P122
     RDKit          3D

 41 45  0  0  0  0  0  0  0  0999 V2000
   -4.8307  -22.5755   25.1758 C   0  0  0  0  0  0  0  0  0  0  0  0
   -6.0723  -22.7770   25.7107 C   0  0  0  0  0  0  0  0  0  0  0  0
   -6.5909  -22.0080   26.7795 C   0  0  0  0  0  0  0  0  0  0  0  0
   -6.0436  -20.7294   26.9615 C   0  0  0  0  0  0  0  0  0  0  0  0
   -4.7122  -20.6920   26.6377 C   0  0  0  0  0  0  0  0  0  0  0  0
   -4.0921  -21.5830   25.7489 C   0  0  0  0  0  0  0  0  0  0  0  0
   -4.0583  -19.7952   27.3518 N   0  0  0  0  0  0  0  0  0  0  0  0
   -4.8151  -18.5735   27.5637 C   0  0  0  0  0  0  0  0  0  0  0  0
   -3.5889  -17.1105   27.1555 N   0  0  0  0  0  0  0  0  0  0  0  0
   -2.1547  -17.1438   27.3294 C   0  0  0  0  0  0  0  0  0  0  0  0
   -1.7507  -15.3257   27.4167 C   0  0  0  0  0  0  0  0  0  0  0  0
   -1.5167  -14.3500   25.7124 C   0  0  0  0  0  0  0  0  0  0  0  0
    0.6086  -13.6539   25.7516 C   0  0  0  0  0  0  0  0  0  0  0  0
    2.0088  -13.7931   26.3920 C   0  0  0  0  0  0  0  0  0  0  0  0
    3.4897  -13.9712   25.2474 C   0  0  0  0  0  0  0  0  0  0  0  0
    3.0323  -13.4779   24.1033 N   0  0  0  0  0  0  0  0  0  0  0  0
    1.7838  -12.9853   24.5772 N   0  0  0  0  0  0  0  0  0  0  0  0
   -2.6860  -16.1383   25.5491 C   0  0  0  0  0  0  0  0  0  0  0  0
   -6.4613  -19.4746   27.7715 N   0  0  0  0  0  0  0  0  0  0  0  0
   -8.4778  -19.4794   28.3060 C   0  0  0  0  0  0  0  0  0  0  0  0
   -9.7303  -21.1086   27.9656 C   0  0  0  0  0  0  0  0  0  0  0  0
  -10.0597  -20.5652   29.2197 C   0  0  0  0  0  0  0  0  0  0  0  0
   -4.4369  -23.2052   24.3877 H   0  0  0  0  0  0  0  0  0  0  0  0
   -6.6781  -23.5361   25.2380 H   0  0  0  0  0  0  0  0  0  0  0  0
   -7.4753  -22.3247   27.2941 H   0  0  0  0  0  0  0  0  0  0  0  0
   -3.0657  -21.4068   25.4698 H   0  0  0  0  0  0  0  0  0  0  0  0
   -1.2678  -17.6296   27.7039 H   0  0  0  0  0  0  0  0  0  0  0  0
   -1.8689  -17.8091   26.4909 H   0  0  0  0  0  0  0  0  0  0  0  0
   -2.4417  -15.0719   28.1513 H   0  0  0  0  0  0  0  0  0  0  0  0
   -0.9231  -15.1646   28.1053 H   0  0  0  0  0  0  0  0  0  0  0  0
   -1.2453  -14.7389   24.6914 H   0  0  0  0  0  0  0  0  0  0  0  0
    2.4722  -14.1581   27.3103 H   0  0  0  0  0  0  0  0  0  0  0  0
    4.4624  -14.3706   25.5271 H   0  0  0  0  0  0  0  0  0  0  0  0
    1.4362  -12.1698   24.1084 H   0  0  0  0  0  0  0  0  0  0  0  0
   -3.4213  -15.7654   24.8299 H   0  0  0  0  0  0  0  0  0  0  0  0
   -2.2559  -16.9745   25.0742 H   0  0  0  0  0  0  0  0  0  0  0  0
   -8.7507  -18.4299   28.0288 H   0  0  0  0  0  0  0  0  0  0  0  0
   -9.5034  -22.1877   28.1942 H   0  0  0  0  0  0  0  0  0  0  0  0
  -10.6473  -21.3319   27.3622 H   0  0  0  0  0  0  0  0  0  0  0  0
  -10.1376  -21.1100   30.1752 H   0  0  0  0  0  0  0  0  0  0  0  0
  -11.1749  -20.5425   29.2973 H   0  0  0  0  0  0  0  0  0  0  0  0
  1  2  2  0
  2  3  1  0
  3  4  2  0
  4  5  1  0
  5  6  2  0
  5  7  1  0
  7  8  2  0
  8  9  1  0
  9 10  1  0
 10 11  1  0
 11 12  1  0
 12 13  1  0
 13 14  2  0
 14 15  1  0
 15 16  2  0
 16 17  1  0
 12 18  1  0
  8 19  1  0
 19 20  1  0
 20 21  1  0
 21 22  1  0
  6  1  1  0
 18  9  1  0
 22 20  1  0
 19  4  1  0
 17 13  1  0
  1 23  1  0
  2 24  1  0
  3 25  1  0
  6 26  1  0
 10 27  1  0
 10 28  1  0
 11 29  1  0
 11 30  1  0
 12 31  1  0
 14 32  1  0
 15 33  1  0
 17 34  1  0
 18 35  1  0
 18 36  1  0
 20 37  1  0
 21 38  1  0
 21 39  1  0
 22 40  1  0
 22 41  1  0
M  END
>  <Energy>  (385) 
1500.3280508815978

>  <compound_id>  (385) 
35276

>  <target_id>  (385) 
1

>  <reference_id>  (385) 
122

>  <inspiration_ids>  (385) 
[94, 122]

>  <energy_score>  (385) 
1384.075411939285

>  <distance_score>  (385) 
12.925329709061472

>  <path>  (385) 
/opt/xchem-fragalysis-2/maxwin/BulkDock/SCRATCH/511015/C35276-P122/C35276-P122.minimised.mol

>  <scratch_subdir>  (385) 
/opt/xchem-fragalysis-2/maxwin/BulkDock/SCRATCH/511015/C35276-P122

>  <fragmenstein_runtime>  (385) 
22.333261728286743

>  <fragmenstein_outcome>  (385) 
too moved

>  <fragmenstein_mode>  (385) 
expansion

>  <fragmenstein_error>  (385) 


$$$$
C35277-P94
     RDKit          3D

 40 42  0  0  0  0  0  0  0  0999 V2000
   -5.7630  -11.8341   30.6076 C   0  0  0  0  0  0  0  0  0  0  0  0
   -4.3886  -12.3112   29.8707 C   0  0  0  0  0  0  0  0  0  0  0  0
   -4.1259  -13.7086   29.8449 N   0  0  0  0  0  0  0  0  0  0  0  0
   -2.7192  -14.7838   29.2907 C   0  0  0  0  0  0  0  0  0  0  0  0
   -1.4876  -14.7737   27.8806 N   0  0  0  0  0  0  0  0  0  0  0  0
    0.1439  -13.8643   27.0003 C   0  0  0  0  0  0  0  0  0  0  0  0
    1.1605  -13.5827   25.4379 C   0  0  0  0  0  0  0  0  0  0  0  0
    2.3770  -13.0449   24.2295 N   0  0  0  0  0  0  0  0  0  0  0  0
    3.7450  -13.6820   23.8042 C   0  0  0  0  0  0  0  0  0  0  0  0
    4.3222  -14.6447   24.2434 O   0  0  0  0  0  0  0  0  0  0  0  0
    4.5860  -13.0334   22.6833 C   0  0  0  0  0  0  0  0  0  0  0  0
    5.6607  -13.6827   22.0488 C   0  0  0  0  0  0  0  0  0  0  0  0
    6.3116  -12.7613   21.2105 C   0  0  0  0  0  0  0  0  0  0  0  0
    5.7160  -11.5780   21.2562 N   0  0  0  0  0  0  0  0  0  0  0  0
    4.7299  -11.7668   22.1562 N   0  0  0  0  0  0  0  0  0  0  0  0
   -3.6419  -15.9564   29.7813 N   0  0  0  0  0  0  0  0  0  0  0  0
   -5.4360  -15.7958   30.0650 C   0  0  0  0  0  0  0  0  0  0  0  0
   -6.4877  -16.4341   30.7817 C   0  0  0  0  0  0  0  0  0  0  0  0
   -7.6404  -15.6757   31.0599 C   0  0  0  0  0  0  0  0  0  0  0  0
   -8.0082  -14.6019   30.2888 C   0  0  0  0  0  0  0  0  0  0  0  0
   -7.0173  -13.9952   29.5645 C   0  0  0  0  0  0  0  0  0  0  0  0
   -5.7118  -14.4384   29.9116 C   0  0  0  0  0  0  0  0  0  0  0  0
   -6.3817  -12.5514   31.1248 H   0  0  0  0  0  0  0  0  0  0  0  0
   -5.5952  -11.1345   31.4308 H   0  0  0  0  0  0  0  0  0  0  0  0
   -6.4201  -11.3152   29.8986 H   0  0  0  0  0  0  0  0  0  0  0  0
   -4.4224  -12.1216   28.8212 H   0  0  0  0  0  0  0  0  0  0  0  0
   -3.4816  -11.8192   30.2061 H   0  0  0  0  0  0  0  0  0  0  0  0
   -1.5196  -15.7576   27.6495 H   0  0  0  0  0  0  0  0  0  0  0  0
    0.9655  -14.6422   26.8611 H   0  0  0  0  0  0  0  0  0  0  0  0
    0.7474  -12.9995   27.0842 H   0  0  0  0  0  0  0  0  0  0  0  0
    0.6235  -14.2263   24.6952 H   0  0  0  0  0  0  0  0  0  0  0  0
    2.0519  -13.7684   26.0454 H   0  0  0  0  0  0  0  0  0  0  0  0
    2.2267  -12.1946   23.7081 H   0  0  0  0  0  0  0  0  0  0  0  0
    5.9432  -14.7133   22.2245 H   0  0  0  0  0  0  0  0  0  0  0  0
    7.1795  -12.9077   20.5803 H   0  0  0  0  0  0  0  0  0  0  0  0
    4.1424  -10.9533   22.2960 H   0  0  0  0  0  0  0  0  0  0  0  0
   -6.3809  -17.3008   31.4134 H   0  0  0  0  0  0  0  0  0  0  0  0
   -8.2535  -15.9181   31.9211 H   0  0  0  0  0  0  0  0  0  0  0  0
   -8.9882  -14.1454   30.3769 H   0  0  0  0  0  0  0  0  0  0  0  0
   -7.2087  -13.0795   29.0194 H   0  0  0  0  0  0  0  0  0  0  0  0
  1  2  1  0
  2  3  1  0
  3  4  1  0
  4  5  1  0
  5  6  1  0
  6  7  1  0
  7  8  1  0
  8  9  1  0
  9 10  2  0
  9 11  1  0
 11 12  2  0
 12 13  1  0
 13 14  2  0
 14 15  1  0
  4 16  2  0
 16 17  1  0
 17 18  2  0
 18 19  1  0
 19 20  2  0
 20 21  1  0
 21 22  2  0
 22  3  1  0
 15 11  1  0
 22 17  1  0
  1 23  1  0
  1 24  1  0
  1 25  1  0
  2 26  1  0
  2 27  1  0
  5 28  1  0
  6 29  1  0
  6 30  1  0
  7 31  1  0
  7 32  1  0
  8 33  1  0
 12 34  1  0
 13 35  1  0
 15 36  1  0
 18 37  1  0
 19 38  1  0
 20 39  1  0
 21 40  1  0
M  END
>  <Energy>  (386) 
781.51887056759654

>  <compound_id>  (386) 
35277

>  <target_id>  (386) 
1

>  <reference_id>  (386) 
94

>  <inspiration_ids>  (386) 
[94, 122]

>  <energy_score>  (386) 
788.6458945322171

>  <distance_score>  (386) 
12.862378312322896

>  <path>  (386) 
/opt/xchem-fragalysis-2/maxwin/BulkDock/SCRATCH/511015/C35277-P94/C35277-P94.minimised.mol

>  <scratch_subdir>  (386) 
/opt/xchem-fragalysis-2/maxwin/BulkDock/SCRATCH/511015/C35277-P94

>  <fragmenstein_runtime>  (386) 
35.58130383491516

>  <fragmenstein_outcome>  (386) 
too moved

>  <fragmenstein_mode>  (386) 
expansion

>  <fragmenstein_error>  (386) 


$$$$
C35277-P122
     RDKit          3D

 40 42  0  0  0  0  0  0  0  0999 V2000
   -8.2281  -18.7510   28.0406 C   0  0  0  0  0  0  0  0  0  0  0  0
   -7.0820  -20.2760   27.2645 C   0  0  0  0  0  0  0  0  0  0  0  0
   -6.6660  -21.4883   26.5641 N   0  0  0  0  0  0  0  0  0  0  0  0
   -5.2919  -21.5865   26.2110 C   0  0  0  0  0  0  0  0  0  0  0  0
   -4.2764  -20.2203   25.8008 N   0  0  0  0  0  0  0  0  0  0  0  0
   -2.3912  -19.4767   26.2070 C   0  0  0  0  0  0  0  0  0  0  0  0
   -0.9393  -18.2024   26.7320 C   0  0  0  0  0  0  0  0  0  0  0  0
    0.8400  -17.7427   27.4367 N   0  0  0  0  0  0  0  0  0  0  0  0
    2.4900  -17.7284   26.6332 C   0  0  0  0  0  0  0  0  0  0  0  0
    2.7491  -18.1078   25.4852 O   0  0  0  0  0  0  0  0  0  0  0  0
    3.7924  -17.1048   27.2900 C   0  0  0  0  0  0  0  0  0  0  0  0
    4.3846  -15.8162   27.2666 C   0  0  0  0  0  0  0  0  0  0  0  0
    5.7837  -15.9365   27.2165 C   0  0  0  0  0  0  0  0  0  0  0  0
    6.1406  -17.2087   27.1540 N   0  0  0  0  0  0  0  0  0  0  0  0
    4.9606  -17.8669   27.1626 N   0  0  0  0  0  0  0  0  0  0  0  0
   -5.3626  -22.7376   27.0331 N   0  0  0  0  0  0  0  0  0  0  0  0
   -6.7569  -22.8095   27.5228 C   0  0  0  0  0  0  0  0  0  0  0  0
   -7.9704  -23.1304   28.2792 C   0  0  0  0  0  0  0  0  0  0  0  0
   -9.0154  -24.3047   28.5480 C   0  0  0  0  0  0  0  0  0  0  0  0
   -9.8463  -24.4164   27.5718 C   0  0  0  0  0  0  0  0  0  0  0  0
   -9.0711  -23.8626   26.5836 C   0  0  0  0  0  0  0  0  0  0  0  0
   -7.4371  -22.9616   26.3604 C   0  0  0  0  0  0  0  0  0  0  0  0
   -7.8882  -18.0668   28.8449 H   0  0  0  0  0  0  0  0  0  0  0  0
   -8.7351  -17.9996   27.3987 H   0  0  0  0  0  0  0  0  0  0  0  0
   -8.9925  -19.4315   28.2227 H   0  0  0  0  0  0  0  0  0  0  0  0
   -6.6559  -19.7490   26.4467 H   0  0  0  0  0  0  0  0  0  0  0  0
   -7.9163  -20.8978   27.4148 H   0  0  0  0  0  0  0  0  0  0  0  0
   -4.7718  -19.5266   26.3671 H   0  0  0  0  0  0  0  0  0  0  0  0
   -2.2129  -19.4303   25.2212 H   0  0  0  0  0  0  0  0  0  0  0  0
   -1.8430  -20.1230   26.8652 H   0  0  0  0  0  0  0  0  0  0  0  0
   -1.5575  -17.4601   27.2355 H   0  0  0  0  0  0  0  0  0  0  0  0
   -0.7225  -17.9669   25.7629 H   0  0  0  0  0  0  0  0  0  0  0  0
    0.9328  -17.4557   28.3997 H   0  0  0  0  0  0  0  0  0  0  0  0
    3.9068  -14.8594   27.1762 H   0  0  0  0  0  0  0  0  0  0  0  0
    6.5363  -15.1608   27.1844 H   0  0  0  0  0  0  0  0  0  0  0  0
    4.9771  -18.8607   26.9686 H   0  0  0  0  0  0  0  0  0  0  0  0
   -8.7351  -22.3655   28.1364 H   0  0  0  0  0  0  0  0  0  0  0  0
   -9.0700  -24.8618   29.4768 H   0  0  0  0  0  0  0  0  0  0  0  0
  -10.7371  -25.0018   27.4717 H   0  0  0  0  0  0  0  0  0  0  0  0
   -9.6483  -24.1074   25.6373 H   0  0  0  0  0  0  0  0  0  0  0  0
  1  2  1  0
  2  3  1  0
  3  4  1  0
  4  5  1  0
  5  6  1  0
  6  7  1  0
  7  8  1  0
  8  9  1  0
  9 10  2  0
  9 11  1  0
 11 12  2  0
 12 13  1  0
 13 14  2  0
 14 15  1  0
  4 16  2  0
 16 17  1  0
 17 18  2  0
 18 19  1  0
 19 20  2  0
 20 21  1  0
 21 22  2  0
 22  3  1  0
 15 11  1  0
 22 17  1  0
  1 23  1  0
  1 24  1  0
  1 25  1  0
  2 26  1  0
  2 27  1  0
  5 28  1  0
  6 29  1  0
  6 30  1  0
  7 31  1  0
  7 32  1  0
  8 33  1  0
 12 34  1  0
 13 35  1  0
 15 36  1  0
 18 37  1  0
 19 38  1  0
 20 39  1  0
 21 40  1  0
M  END
>  <Energy>  (387) 
1055.2965167836817

>  <compound_id>  (387) 
35277

>  <target_id>  (387) 
1

>  <reference_id>  (387) 
122

>  <inspiration_ids>  (387) 
[94, 122]

>  <energy_score>  (387) 
1062.4235407482824

>  <distance_score>  (387) 
13.279579532440042

>  <path>  (387) 
/opt/xchem-fragalysis-2/maxwin/BulkDock/SCRATCH/511015/C35277-P122/C35277-P122.minimised.mol

>  <scratch_subdir>  (387) 
/opt/xchem-fragalysis-2/maxwin/BulkDock/SCRATCH/511015/C35277-P122

>  <fragmenstein_runtime>  (387) 
16.180615663528442

>  <fragmenstein_outcome>  (387) 
too moved

>  <fragmenstein_mode>  (387) 
expansion

>  <fragmenstein_error>  (387) 


$$$$
C35278-P94
     RDKit          3D

 34 37  0  0  0  0  0  0  0  0999 V2000
    5.8089  -17.1454   30.7033 F   0  0  0  0  0  0  0  0  0  0  0  0
    5.2039  -18.2747   30.2770 C   0  0  0  0  0  0  0  0  0  0  0  0
    4.3532  -18.6851   31.2430 F   0  0  0  0  0  0  0  0  0  0  0  0
    6.1664  -19.2240   30.1692 F   0  0  0  0  0  0  0  0  0  0  0  0
    4.5140  -18.0918   28.9501 C   0  0  0  0  0  0  0  0  0  0  0  0
    3.4747  -17.0423   29.0069 C   0  0  0  0  0  0  0  0  0  0  0  0
    3.7264  -15.7637   28.6471 N   0  0  0  0  0  0  0  0  0  0  0  0
    2.5802  -15.1010   28.7829 C   0  0  0  0  0  0  0  0  0  0  0  0
    2.6625  -13.7141   28.3027 C   0  0  0  0  0  0  0  0  0  0  0  0
    2.1710  -12.4778   28.6700 C   0  0  0  0  0  0  0  0  0  0  0  0
    2.8362  -11.5217   27.8552 C   0  0  0  0  0  0  0  0  0  0  0  0
    3.6704  -12.0851   26.9860 N   0  0  0  0  0  0  0  0  0  0  0  0
    3.5930  -13.3931   27.3101 N   0  0  0  0  0  0  0  0  0  0  0  0
    1.5923  -16.0643   29.2886 N   0  0  0  0  0  0  0  0  0  0  0  0
    0.1871  -16.1131   29.7088 C   0  0  0  0  0  0  0  0  0  0  0  0
   -0.5721  -14.9661   29.9394 C   0  0  0  0  0  0  0  0  0  0  0  0
   -1.9229  -15.0273   30.3474 C   0  0  0  0  0  0  0  0  0  0  0  0
   -2.5983  -16.2394   30.5326 C   0  0  0  0  0  0  0  0  0  0  0  0
   -1.8842  -17.4178   30.3250 C   0  0  0  0  0  0  0  0  0  0  0  0
   -2.3219  -18.7129   30.4628 N   0  0  0  0  0  0  0  0  0  0  0  0
   -1.2741  -19.4508   30.1957 C   0  0  0  0  0  0  0  0  0  0  0  0
   -0.1881  -18.6805   29.8801 N   0  0  0  0  0  0  0  0  0  0  0  0
   -0.5370  -17.3435   29.9416 C   0  0  0  0  0  0  0  0  0  0  0  0
    2.2089  -17.2996   29.3010 N   0  0  0  0  0  0  0  0  0  0  0  0
    5.2568  -17.8267   28.1888 H   0  0  0  0  0  0  0  0  0  0  0  0
    4.0689  -19.0427   28.6347 H   0  0  0  0  0  0  0  0  0  0  0  0
    1.4775  -12.2654   29.4700 H   0  0  0  0  0  0  0  0  0  0  0  0
    2.7472  -10.4440   27.8812 H   0  0  0  0  0  0  0  0  0  0  0  0
    4.2185  -14.0485   26.8536 H   0  0  0  0  0  0  0  0  0  0  0  0
   -0.1116  -13.9887   29.8485 H   0  0  0  0  0  0  0  0  0  0  0  0
   -2.4603  -14.0989   30.5355 H   0  0  0  0  0  0  0  0  0  0  0  0
   -3.6349  -16.2768   30.8485 H   0  0  0  0  0  0  0  0  0  0  0  0
   -1.2350  -20.5316   30.2177 H   0  0  0  0  0  0  0  0  0  0  0  0
    0.7434  -19.0085   29.6628 H   0  0  0  0  0  0  0  0  0  0  0  0
  1  2  1  0
  2  3  1  0
  2  4  1  0
  2  5  1  0
  5  6  1  0
  6  7  1  0
  7  8  2  0
  8  9  1  0
  9 10  2  0
 10 11  1  0
 11 12  2  0
 12 13  1  0
  8 14  1  0
 14 15  1  0
 15 16  2  0
 16 17  1  0
 17 18  2  0
 18 19  1  0
 19 20  1  0
 20 21  2  0
 21 22  1  0
 22 23  1  0
 14 24  1  0
 24  6  2  0
 13  9  1  0
 23 15  1  0
 23 19  2  0
  5 25  1  0
  5 26  1  0
 10 27  1  0
 11 28  1  0
 13 29  1  0
 16 30  1  0
 17 31  1  0
 18 32  1  0
 21 33  1  0
 22 34  1  0
M  END
>  <Energy>  (388) 
68.866990358090717

>  <compound_id>  (388) 
35278

>  <target_id>  (388) 
1

>  <reference_id>  (388) 
94

>  <inspiration_ids>  (388) 
[94, 122]

>  <energy_score>  (388) 
-21.1513352083432

>  <distance_score>  (388) 
15.578876183853414

>  <path>  (388) 
/opt/xchem-fragalysis-2/maxwin/BulkDock/SCRATCH/511015/C35278-P94/C35278-P94.minimised.mol

>  <scratch_subdir>  (388) 
/opt/xchem-fragalysis-2/maxwin/BulkDock/SCRATCH/511015/C35278-P94

>  <fragmenstein_runtime>  (388) 
26.955448627471924

>  <fragmenstein_outcome>  (388) 
too moved

>  <fragmenstein_mode>  (388) 
expansion

>  <fragmenstein_error>  (388) 


$$$$
C35278-P122
     RDKit          3D

 34 37  0  0  0  0  0  0  0  0999 V2000
    0.0119   -9.9700   30.0760 F   0  0  0  0  0  0  0  0  0  0  0  0
   -0.3411  -10.5648   31.2378 C   0  0  0  0  0  0  0  0  0  0  0  0
   -0.5451   -9.5751   32.1420 F   0  0  0  0  0  0  0  0  0  0  0  0
   -1.5355  -11.1696   31.0445 F   0  0  0  0  0  0  0  0  0  0  0  0
    0.7093  -11.5197   31.7432 C   0  0  0  0  0  0  0  0  0  0  0  0
    1.0260  -12.5623   30.7460 C   0  0  0  0  0  0  0  0  0  0  0  0
    2.0976  -12.4657   29.9247 N   0  0  0  0  0  0  0  0  0  0  0  0
    2.0270  -13.5152   29.1151 C   0  0  0  0  0  0  0  0  0  0  0  0
    2.8778  -13.3900   27.9273 C   0  0  0  0  0  0  0  0  0  0  0  0
    2.6280  -12.7966   26.6937 C   0  0  0  0  0  0  0  0  0  0  0  0
    3.8776  -12.5945   26.0662 C   0  0  0  0  0  0  0  0  0  0  0  0
    4.8817  -12.9822   26.8480 N   0  0  0  0  0  0  0  0  0  0  0  0
    4.2601  -13.4000   27.9772 N   0  0  0  0  0  0  0  0  0  0  0  0
    0.9741  -14.3886   29.6422 N   0  0  0  0  0  0  0  0  0  0  0  0
    0.5189  -15.7796   29.5490 C   0  0  0  0  0  0  0  0  0  0  0  0
    1.3208  -16.8132   29.0363 C   0  0  0  0  0  0  0  0  0  0  0  0
    0.8466  -18.1428   28.9294 C   0  0  0  0  0  0  0  0  0  0  0  0
   -0.4370  -18.5182   29.3507 C   0  0  0  0  0  0  0  0  0  0  0  0
   -1.2486  -17.5408   29.9296 C   0  0  0  0  0  0  0  0  0  0  0  0
   -2.5121  -17.6825   30.4531 N   0  0  0  0  0  0  0  0  0  0  0  0
   -2.8259  -16.4927   30.9001 C   0  0  0  0  0  0  0  0  0  0  0  0
   -1.8248  -15.5903   30.6613 N   0  0  0  0  0  0  0  0  0  0  0  0
   -0.7702  -16.2264   30.0313 C   0  0  0  0  0  0  0  0  0  0  0  0
    0.2829  -13.6486   30.5790 N   0  0  0  0  0  0  0  0  0  0  0  0
    1.6199  -10.9602   31.9866 H   0  0  0  0  0  0  0  0  0  0  0  0
    0.3675  -11.9844   32.6752 H   0  0  0  0  0  0  0  0  0  0  0  0
    1.6663  -12.5110   26.3038 H   0  0  0  0  0  0  0  0  0  0  0  0
    4.0882  -12.1755   25.0905 H   0  0  0  0  0  0  0  0  0  0  0  0
    4.8370  -13.6379   28.7764 H   0  0  0  0  0  0  0  0  0  0  0  0
    2.3310  -16.6015   28.6890 H   0  0  0  0  0  0  0  0  0  0  0  0
    1.5037  -18.9042   28.5100 H   0  0  0  0  0  0  0  0  0  0  0  0
   -0.7872  -19.5414   29.2713 H   0  0  0  0  0  0  0  0  0  0  0  0
   -3.7490  -16.2226   31.3957 H   0  0  0  0  0  0  0  0  0  0  0  0
   -1.8197  -14.6137   30.9239 H   0  0  0  0  0  0  0  0  0  0  0  0
  1  2  1  0
  2  3  1  0
  2  4  1  0
  2  5  1  0
  5  6  1  0
  6  7  1  0
  7  8  2  0
  8  9  1  0
  9 10  2  0
 10 11  1  0
 11 12  2  0
 12 13  1  0
  8 14  1  0
 14 15  1  0
 15 16  2  0
 16 17  1  0
 17 18  2  0
 18 19  1  0
 19 20  1  0
 20 21  2  0
 21 22  1  0
 22 23  1  0
 14 24  1  0
 24  6  2  0
 13  9  1  0
 23 15  1  0
 23 19  2  0
  5 25  1  0
  5 26  1  0
 10 27  1  0
 11 28  1  0
 13 29  1  0
 16 30  1  0
 17 31  1  0
 18 32  1  0
 21 33  1  0
 22 34  1  0
M  END
>  <Energy>  (389) 
76.82390226331492

>  <compound_id>  (389) 
35278

>  <target_id>  (389) 
1

>  <reference_id>  (389) 
122

>  <inspiration_ids>  (389) 
[94, 122]

>  <energy_score>  (389) 
-13.194423303117446

>  <distance_score>  (389) 
15.539513007994934

>  <path>  (389) 
/opt/xchem-fragalysis-2/maxwin/BulkDock/SCRATCH/511015/C35278-P122/C35278-P122.minimised.mol

>  <scratch_subdir>  (389) 
/opt/xchem-fragalysis-2/maxwin/BulkDock/SCRATCH/511015/C35278-P122

>  <fragmenstein_runtime>  (389) 
23.349520206451416

>  <fragmenstein_outcome>  (389) 
too moved

>  <fragmenstein_mode>  (389) 
expansion

>  <fragmenstein_error>  (389) 


$$$$
C35257-P94
     RDKit          3D

 34 36  0  0  0  0  0  0  0  0999 V2000
    3.5292  -14.8977   23.3303 O   0  0  0  0  0  0  0  0  0  0  0  0
    2.7909  -13.9160   23.4585 C   0  0  0  0  0  0  0  0  0  0  0  0
    3.4204  -12.4776   23.2835 C   0  0  0  0  0  0  0  0  0  0  0  0
    4.7658  -11.6682   22.8179 C   0  0  0  0  0  0  0  0  0  0  0  0
    6.0923  -12.0171   22.6161 C   0  0  0  0  0  0  0  0  0  0  0  0
    6.7362  -10.8425   22.1666 C   0  0  0  0  0  0  0  0  0  0  0  0
    5.8988   -9.8083   22.0834 N   0  0  0  0  0  0  0  0  0  0  0  0
    4.7120  -10.3320   22.4552 N   0  0  0  0  0  0  0  0  0  0  0  0
    1.0634  -14.0545   23.7411 O   0  0  0  0  0  0  0  0  0  0  0  0
   -0.7855  -14.4332   23.4359 C   0  0  0  0  0  0  0  0  0  0  0  0
   -2.4929  -15.3154   23.9860 C   0  0  0  0  0  0  0  0  0  0  0  0
   -3.7201  -14.7302   23.6748 N   0  0  0  0  0  0  0  0  0  0  0  0
   -5.1250  -13.7203   23.5504 C   0  0  0  0  0  0  0  0  0  0  0  0
   -6.0476  -12.5925   23.9904 C   0  0  0  0  0  0  0  0  0  0  0  0
   -7.3383  -12.7367   24.5626 C   0  0  0  0  0  0  0  0  0  0  0  0
   -7.8812  -13.9808   24.6518 C   0  0  0  0  0  0  0  0  0  0  0  0
   -7.0851  -15.0059   24.1085 C   0  0  0  0  0  0  0  0  0  0  0  0
   -5.3517  -15.0480   23.6739 C   0  0  0  0  0  0  0  0  0  0  0  0
   -3.8158  -15.7074   23.1056 N   0  0  0  0  0  0  0  0  0  0  0  0
   -3.9277  -16.4509   21.5401 C   0  0  0  0  0  0  0  0  0  0  0  0
   -5.1222  -17.0183   21.1600 F   0  0  0  0  0  0  0  0  0  0  0  0
   -3.2396  -15.6494   20.6090 F   0  0  0  0  0  0  0  0  0  0  0  0
    3.5407  -12.8122   22.2359 H   0  0  0  0  0  0  0  0  0  0  0  0
    4.1038  -12.8109   24.0752 H   0  0  0  0  0  0  0  0  0  0  0  0
    6.5279  -12.9954   22.7638 H   0  0  0  0  0  0  0  0  0  0  0  0
    7.7759  -10.7062   21.8990 H   0  0  0  0  0  0  0  0  0  0  0  0
    3.8779   -9.7539   22.3710 H   0  0  0  0  0  0  0  0  0  0  0  0
   -0.6859  -14.8771   22.4507 H   0  0  0  0  0  0  0  0  0  0  0  0
   -0.7344  -14.6158   24.4773 H   0  0  0  0  0  0  0  0  0  0  0  0
   -5.7262  -11.5635   23.8766 H   0  0  0  0  0  0  0  0  0  0  0  0
   -7.8940  -11.8560   24.8698 H   0  0  0  0  0  0  0  0  0  0  0  0
   -8.9026  -14.1542   24.9664 H   0  0  0  0  0  0  0  0  0  0  0  0
   -7.6468  -15.9164   23.8659 H   0  0  0  0  0  0  0  0  0  0  0  0
   -3.1387  -17.0997   21.1995 H   0  0  0  0  0  0  0  0  0  0  0  0
  1  2  2  0
  2  3  1  0
  3  4  1  0
  4  5  2  0
  5  6  1  0
  6  7  2  0
  7  8  1  0
  2  9  1  0
  9 10  1  0
 10 11  1  0
 11 12  2  0
 12 13  1  0
 13 14  2  0
 14 15  1  0
 15 16  2  0
 16 17  1  0
 17 18  2  0
 18 19  1  0
 19 20  1  0
 20 21  1  0
 20 22  1  0
  8  4  1  0
 19 11  1  0
 18 13  1  0
  3 23  1  0
  3 24  1  0
  5 25  1  0
  6 26  1  0
  8 27  1  0
 10 28  1  0
 10 29  1  0
 14 30  1  0
 15 31  1  0
 16 32  1  0
 17 33  1  0
 20 34  1  0
M  END
>  <Energy>  (390) 
977.8057946640414

>  <compound_id>  (390) 
35257

>  <target_id>  (390) 
1

>  <reference_id>  (390) 
94

>  <inspiration_ids>  (390) 
[94, 122]

>  <energy_score>  (390) 
904.3829264370202

>  <distance_score>  (390) 
14.180017175534225

>  <path>  (390) 
/opt/xchem-fragalysis-2/maxwin/BulkDock/SCRATCH/511015/C35257-P94/C35257-P94.minimised.mol

>  <scratch_subdir>  (390) 
/opt/xchem-fragalysis-2/maxwin/BulkDock/SCRATCH/511015/C35257-P94

>  <fragmenstein_runtime>  (390) 
17.358914136886597

>  <fragmenstein_outcome>  (390) 
too moved

>  <fragmenstein_mode>  (390) 
expansion

>  <fragmenstein_error>  (390) 


$$$$
C35257-P122
     RDKit          3D

 34 36  0  0  0  0  0  0  0  0999 V2000
   -5.5580  -20.3927   19.6327 O   0  0  0  0  0  0  0  0  0  0  0  0
   -6.4701  -19.5753   19.6130 C   0  0  0  0  0  0  0  0  0  0  0  0
   -6.4022  -18.2365   18.8548 C   0  0  0  0  0  0  0  0  0  0  0  0
   -5.0832  -17.8653   18.1348 C   0  0  0  0  0  0  0  0  0  0  0  0
   -4.8567  -17.0678   17.0177 C   0  0  0  0  0  0  0  0  0  0  0  0
   -3.4639  -17.0561   16.8240 C   0  0  0  0  0  0  0  0  0  0  0  0
   -2.8330  -17.7339   17.7810 N   0  0  0  0  0  0  0  0  0  0  0  0
   -3.8232  -18.2692   18.5176 N   0  0  0  0  0  0  0  0  0  0  0  0
   -7.6931  -19.7505   20.2752 O   0  0  0  0  0  0  0  0  0  0  0  0
   -7.7445  -20.9572   21.0965 C   0  0  0  0  0  0  0  0  0  0  0  0
   -9.1275  -21.2933   21.6982 C   0  0  0  0  0  0  0  0  0  0  0  0
   -9.4259  -22.4823   22.2344 N   0  0  0  0  0  0  0  0  0  0  0  0
  -10.7232  -22.4082   22.7053 C   0  0  0  0  0  0  0  0  0  0  0  0
  -11.5090  -23.3179   23.4338 C   0  0  0  0  0  0  0  0  0  0  0  0
  -12.8400  -23.0174   23.7223 C   0  0  0  0  0  0  0  0  0  0  0  0
  -13.3768  -21.7958   23.3348 C   0  0  0  0  0  0  0  0  0  0  0  0
  -12.5840  -20.8216   22.7256 C   0  0  0  0  0  0  0  0  0  0  0  0
  -11.2574  -21.1633   22.4311 C   0  0  0  0  0  0  0  0  0  0  0  0
  -10.1779  -20.4305   21.9717 N   0  0  0  0  0  0  0  0  0  0  0  0
  -10.1309  -18.9913   22.1013 C   0  0  0  0  0  0  0  0  0  0  0  0
  -10.7781  -18.5946   23.2446 F   0  0  0  0  0  0  0  0  0  0  0  0
  -10.7837  -18.3943   21.0683 F   0  0  0  0  0  0  0  0  0  0  0  0
   -7.1988  -18.2533   18.1018 H   0  0  0  0  0  0  0  0  0  0  0  0
   -6.6208  -17.4433   19.5777 H   0  0  0  0  0  0  0  0  0  0  0  0
   -5.6066  -16.5738   16.4162 H   0  0  0  0  0  0  0  0  0  0  0  0
   -2.8950  -16.5629   16.0468 H   0  0  0  0  0  0  0  0  0  0  0  0
   -3.5773  -18.9366   19.2443 H   0  0  0  0  0  0  0  0  0  0  0  0
   -7.0420  -20.8351   21.9279 H   0  0  0  0  0  0  0  0  0  0  0  0
   -7.4422  -21.8159   20.4851 H   0  0  0  0  0  0  0  0  0  0  0  0
  -11.0854  -24.2204   23.8340 H   0  0  0  0  0  0  0  0  0  0  0  0
  -13.4473  -23.7189   24.2884 H   0  0  0  0  0  0  0  0  0  0  0  0
  -14.4100  -21.5654   23.5857 H   0  0  0  0  0  0  0  0  0  0  0  0
  -12.9891  -19.8401   22.5015 H   0  0  0  0  0  0  0  0  0  0  0  0
   -9.0993  -18.6417   22.1227 H   0  0  0  0  0  0  0  0  0  0  0  0
  1  2  2  0
  2  3  1  0
  3  4  1  0
  4  5  2  0
  5  6  1  0
  6  7  2  0
  7  8  1  0
  2  9  1  0
  9 10  1  0
 10 11  1  0
 11 12  2  0
 12 13  1  0
 13 14  2  0
 14 15  1  0
 15 16  2  0
 16 17  1  0
 17 18  2  0
 18 19  1  0
 19 20  1  0
 20 21  1  0
 20 22  1  0
  8  4  1  0
 19 11  1  0
 18 13  1  0
  3 23  1  0
  3 24  1  0
  5 25  1  0
  6 26  1  0
  8 27  1  0
 10 28  1  0
 10 29  1  0
 14 30  1  0
 15 31  1  0
 16 32  1  0
 17 33  1  0
 20 34  1  0
M  END
>  <Energy>  (391) 
53.665742088709784

>  <compound_id>  (391) 
35257

>  <target_id>  (391) 
1

>  <reference_id>  (391) 
122

>  <inspiration_ids>  (391) 
[94, 122]

>  <energy_score>  (391) 
-19.757126138312742

>  <distance_score>  (391) 
15.793567897405023

>  <path>  (391) 
/opt/xchem-fragalysis-2/maxwin/BulkDock/SCRATCH/511015/C35257-P122/C35257-P122.minimised.mol

>  <scratch_subdir>  (391) 
/opt/xchem-fragalysis-2/maxwin/BulkDock/SCRATCH/511015/C35257-P122

>  <fragmenstein_runtime>  (391) 
15.68937063217163

>  <fragmenstein_outcome>  (391) 
too moved

>  <fragmenstein_mode>  (391) 
expansion

>  <fragmenstein_error>  (391) 


$$$$
C35279-P94
     RDKit          3D

 37 39  0  0  0  0  0  0  0  0999 V2000
   -7.7685  -16.8536   28.9890 C   0  0  0  0  0  0  0  0  0  0  0  0
   -6.6320  -17.4233   29.8237 C   0  0  0  0  0  0  0  0  0  0  0  0
   -6.0177  -18.7110   29.3819 N   0  0  0  0  0  0  0  0  0  0  0  0
   -5.0424  -18.6838   27.7505 C   0  0  0  0  0  0  0  0  0  0  0  0
   -3.0838  -17.7846   27.4190 C   0  0  0  0  0  0  0  0  0  0  0  0
   -1.0846  -17.9939   27.2272 O   0  0  0  0  0  0  0  0  0  0  0  0
    0.6557  -17.5286   27.6788 C   0  0  0  0  0  0  0  0  0  0  0  0
    0.8498  -16.7945   28.7040 O   0  0  0  0  0  0  0  0  0  0  0  0
    2.3316  -17.8166   26.7748 C   0  0  0  0  0  0  0  0  0  0  0  0
    4.0333  -17.3073   26.6459 C   0  0  0  0  0  0  0  0  0  0  0  0
    4.7773  -16.1820   27.0107 C   0  0  0  0  0  0  0  0  0  0  0  0
    5.9031  -16.1288   26.1616 C   0  0  0  0  0  0  0  0  0  0  0  0
    5.9248  -17.1525   25.3134 N   0  0  0  0  0  0  0  0  0  0  0  0
    4.8254  -17.8676   25.6446 N   0  0  0  0  0  0  0  0  0  0  0  0
   -5.6625  -20.2740   27.5087 N   0  0  0  0  0  0  0  0  0  0  0  0
   -4.9775  -21.4858   28.8709 C   0  0  0  0  0  0  0  0  0  0  0  0
   -3.4969  -22.3903   29.6583 C   0  0  0  0  0  0  0  0  0  0  0  0
   -3.0053  -22.2892   31.0354 C   0  0  0  0  0  0  0  0  0  0  0  0
   -3.5550  -21.4077   32.0433 C   0  0  0  0  0  0  0  0  0  0  0  0
   -4.6871  -20.5025   31.9073 C   0  0  0  0  0  0  0  0  0  0  0  0
   -5.3300  -20.2289   30.5053 C   0  0  0  0  0  0  0  0  0  0  0  0
   -8.5340  -17.5418   28.6557 H   0  0  0  0  0  0  0  0  0  0  0  0
   -8.1729  -15.9563   29.4672 H   0  0  0  0  0  0  0  0  0  0  0  0
   -7.4560  -16.4614   28.0562 H   0  0  0  0  0  0  0  0  0  0  0  0
   -6.9205  -17.5123   30.8708 H   0  0  0  0  0  0  0  0  0  0  0  0
   -5.8461  -16.6687   29.7681 H   0  0  0  0  0  0  0  0  0  0  0  0
   -2.9573  -17.2257   26.4808 H   0  0  0  0  0  0  0  0  0  0  0  0
   -3.1441  -16.8167   27.9348 H   0  0  0  0  0  0  0  0  0  0  0  0
    2.4182  -17.9376   25.6960 H   0  0  0  0  0  0  0  0  0  0  0  0
    2.4502  -16.8663   27.3112 H   0  0  0  0  0  0  0  0  0  0  0  0
    4.4949  -15.4084   27.6930 H   0  0  0  0  0  0  0  0  0  0  0  0
    6.6799  -15.3774   26.1147 H   0  0  0  0  0  0  0  0  0  0  0  0
    4.6042  -18.6795   25.0786 H   0  0  0  0  0  0  0  0  0  0  0  0
   -3.1545  -23.2970   29.1286 H   0  0  0  0  0  0  0  0  0  0  0  0
   -2.1930  -22.9523   31.3341 H   0  0  0  0  0  0  0  0  0  0  0  0
   -3.0942  -21.4462   33.0343 H   0  0  0  0  0  0  0  0  0  0  0  0
   -5.0168  -19.8856   32.7440 H   0  0  0  0  0  0  0  0  0  0  0  0
  1  2  1  0
  2  3  1  0
  3  4  1  0
  4  5  1  0
  5  6  1  0
  6  7  1  0
  7  8  2  0
  7  9  1  0
  9 10  1  0
 10 11  2  0
 11 12  1  0
 12 13  2  0
 13 14  1  0
  4 15  2  0
 15 16  1  0
 16 17  2  0
 17 18  1  0
 18 19  2  0
 19 20  1  0
 20 21  2  0
 21  3  1  0
 14 10  1  0
 21 16  1  0
  1 22  1  0
  1 23  1  0
  1 24  1  0
  2 25  1  0
  2 26  1  0
  5 27  1  0
  5 28  1  0
  9 29  1  0
  9 30  1  0
 11 31  1  0
 12 32  1  0
 14 33  1  0
 17 34  1  0
 18 35  1  0
 19 36  1  0
 20 37  1  0
M  END
>  <Energy>  (392) 
1285.7160303748276

>  <compound_id>  (392) 
35279

>  <target_id>  (392) 
1

>  <reference_id>  (392) 
94

>  <inspiration_ids>  (392) 
[94, 122]

>  <energy_score>  (392) 
1223.2338854530385

>  <distance_score>  (392) 
13.701158183768928

>  <path>  (392) 
/opt/xchem-fragalysis-2/maxwin/BulkDock/SCRATCH/511015/C35279-P94/C35279-P94.minimised.mol

>  <scratch_subdir>  (392) 
/opt/xchem-fragalysis-2/maxwin/BulkDock/SCRATCH/511015/C35279-P94

>  <fragmenstein_runtime>  (392) 
22.54376244544983

>  <fragmenstein_outcome>  (392) 
too moved

>  <fragmenstein_mode>  (392) 
expansion

>  <fragmenstein_error>  (392) 


$$$$
C35279-P122
     RDKit          3D

 37 39  0  0  0  0  0  0  0  0999 V2000
   -1.5227  -22.3362   31.4173 C   0  0  0  0  0  0  0  0  0  0  0  0
   -0.3793  -21.6794   32.2102 C   0  0  0  0  0  0  0  0  0  0  0  0
   -0.6128  -20.3390   32.7153 N   0  0  0  0  0  0  0  0  0  0  0  0
    0.3040  -19.2568   32.7821 C   0  0  0  0  0  0  0  0  0  0  0  0
    1.8792  -19.2887   32.9705 C   0  0  0  0  0  0  0  0  0  0  0  0
    2.7971  -19.0882   31.7952 O   0  0  0  0  0  0  0  0  0  0  0  0
    3.7924  -18.0857   31.7734 C   0  0  0  0  0  0  0  0  0  0  0  0
    3.7363  -17.0778   32.4733 O   0  0  0  0  0  0  0  0  0  0  0  0
    5.0571  -18.4126   30.8574 C   0  0  0  0  0  0  0  0  0  0  0  0
    5.7099  -17.3301   29.9083 C   0  0  0  0  0  0  0  0  0  0  0  0
    5.7933  -17.2277   28.5176 C   0  0  0  0  0  0  0  0  0  0  0  0
    6.5421  -16.0607   28.2353 C   0  0  0  0  0  0  0  0  0  0  0  0
    6.9613  -15.4648   29.3509 N   0  0  0  0  0  0  0  0  0  0  0  0
    6.4357  -16.2328   30.3379 N   0  0  0  0  0  0  0  0  0  0  0  0
   -0.4019  -18.1719   33.0903 N   0  0  0  0  0  0  0  0  0  0  0  0
   -1.6807  -18.5702   33.4261 C   0  0  0  0  0  0  0  0  0  0  0  0
   -2.7636  -17.8185   33.9232 C   0  0  0  0  0  0  0  0  0  0  0  0
   -3.9789  -18.4549   34.2229 C   0  0  0  0  0  0  0  0  0  0  0  0
   -4.1161  -19.8245   34.0398 C   0  0  0  0  0  0  0  0  0  0  0  0
   -3.0415  -20.5878   33.5650 C   0  0  0  0  0  0  0  0  0  0  0  0
   -1.8337  -19.9336   33.2449 C   0  0  0  0  0  0  0  0  0  0  0  0
   -2.0505  -21.6191   30.7866 H   0  0  0  0  0  0  0  0  0  0  0  0
   -2.2362  -22.8422   32.0698 H   0  0  0  0  0  0  0  0  0  0  0  0
   -1.1077  -23.1142   30.7668 H   0  0  0  0  0  0  0  0  0  0  0  0
    0.4967  -21.6069   31.5545 H   0  0  0  0  0  0  0  0  0  0  0  0
   -0.1026  -22.3018   33.0682 H   0  0  0  0  0  0  0  0  0  0  0  0
    2.1362  -20.2770   33.3675 H   0  0  0  0  0  0  0  0  0  0  0  0
    2.1366  -18.5479   33.7358 H   0  0  0  0  0  0  0  0  0  0  0  0
    5.8435  -18.7178   31.5619 H   0  0  0  0  0  0  0  0  0  0  0  0
    4.8480  -19.3056   30.2619 H   0  0  0  0  0  0  0  0  0  0  0  0
    5.3510  -17.9040   27.8000 H   0  0  0  0  0  0  0  0  0  0  0  0
    6.8011  -15.6393   27.2732 H   0  0  0  0  0  0  0  0  0  0  0  0
    6.6075  -15.9507   31.2961 H   0  0  0  0  0  0  0  0  0  0  0  0
   -2.6528  -16.7474   34.0604 H   0  0  0  0  0  0  0  0  0  0  0  0
   -4.8192  -17.8676   34.5844 H   0  0  0  0  0  0  0  0  0  0  0  0
   -5.0721  -20.2937   34.2600 H   0  0  0  0  0  0  0  0  0  0  0  0
   -3.1572  -21.6544   33.4612 H   0  0  0  0  0  0  0  0  0  0  0  0
  1  2  1  0
  2  3  1  0
  3  4  1  0
  4  5  1  0
  5  6  1  0
  6  7  1  0
  7  8  2  0
  7  9  1  0
  9 10  1  0
 10 11  2  0
 11 12  1  0
 12 13  2  0
 13 14  1  0
  4 15  2  0
 15 16  1  0
 16 17  2  0
 17 18  1  0
 18 19  2  0
 19 20  1  0
 20 21  2  0
 21  3  1  0
 14 10  1  0
 21 16  1  0
  1 22  1  0
  1 23  1  0
  1 24  1  0
  2 25  1  0
  2 26  1  0
  5 27  1  0
  5 28  1  0
  9 29  1  0
  9 30  1  0
 11 31  1  0
 12 32  1  0
 14 33  1  0
 17 34  1  0
 18 35  1  0
 19 36  1  0
 20 37  1  0
M  END
>  <Energy>  (393) 
76.055561119866994

>  <compound_id>  (393) 
35279

>  <target_id>  (393) 
1

>  <reference_id>  (393) 
122

>  <inspiration_ids>  (393) 
[94, 122]

>  <energy_score>  (393) 
13.573416198050381

>  <distance_score>  (393) 
15.671737712965571

>  <path>  (393) 
/opt/xchem-fragalysis-2/maxwin/BulkDock/SCRATCH/511015/C35279-P122/C35279-P122.minimised.mol

>  <scratch_subdir>  (393) 
/opt/xchem-fragalysis-2/maxwin/BulkDock/SCRATCH/511015/C35279-P122

>  <fragmenstein_runtime>  (393) 
19.167476177215576

>  <fragmenstein_outcome>  (393) 
too moved

>  <fragmenstein_mode>  (393) 
expansion

>  <fragmenstein_error>  (393) 


$$$$
C35267-P94
     RDKit          3D

 41 43  0  0  0  0  0  0  0  0999 V2000
   -4.6078  -22.8610   25.3518 C   0  0  0  0  0  0  0  0  0  0  0  0
   -4.6816  -22.0584   26.6361 C   0  0  0  0  0  0  0  0  0  0  0  0
   -5.6945  -20.9599   26.4730 C   0  0  0  0  0  0  0  0  0  0  0  0
   -3.3912  -21.5420   27.0387 N   0  0  0  0  0  0  0  0  0  0  0  0
   -2.6411  -22.0447   28.0733 C   0  0  0  0  0  0  0  0  0  0  0  0
   -1.5464  -21.3314   28.2540 N   0  0  0  0  0  0  0  0  0  0  0  0
   -1.6388  -20.2715   27.3432 C   0  0  0  0  0  0  0  0  0  0  0  0
   -0.9313  -18.9054   27.0471 C   0  0  0  0  0  0  0  0  0  0  0  0
   -1.6951  -17.7557   26.7438 C   0  0  0  0  0  0  0  0  0  0  0  0
   -2.1899  -17.7389   25.5113 C   0  0  0  0  0  0  0  0  0  0  0  0
   -2.3545  -15.9530   24.4958 C   0  0  0  0  0  0  0  0  0  0  0  0
   -1.0722  -15.1625   23.1916 N   0  0  0  0  0  0  0  0  0  0  0  0
   -0.0984  -15.9829   21.6985 C   0  0  0  0  0  0  0  0  0  0  0  0
   -0.2929  -17.1542   21.3239 O   0  0  0  0  0  0  0  0  0  0  0  0
    1.4843  -15.2055   20.6701 C   0  0  0  0  0  0  0  0  0  0  0  0
    2.7355  -14.7782   19.2686 C   0  0  0  0  0  0  0  0  0  0  0  0
    2.7620  -14.5910   17.8781 C   0  0  0  0  0  0  0  0  0  0  0  0
    4.0325  -14.0522   17.5436 C   0  0  0  0  0  0  0  0  0  0  0  0
    4.7964  -13.8742   18.6131 N   0  0  0  0  0  0  0  0  0  0  0  0
    4.0503  -14.3614   19.6177 N   0  0  0  0  0  0  0  0  0  0  0  0
   -2.6851  -19.4920   25.5339 C   0  0  0  0  0  0  0  0  0  0  0  0
   -2.7499  -20.4249   26.6044 C   0  0  0  0  0  0  0  0  0  0  0  0
   -3.9051  -23.6941   25.4501 H   0  0  0  0  0  0  0  0  0  0  0  0
   -4.2421  -22.2501   24.5181 H   0  0  0  0  0  0  0  0  0  0  0  0
   -5.5881  -23.2473   25.0592 H   0  0  0  0  0  0  0  0  0  0  0  0
   -5.0146  -22.7213   27.4380 H   0  0  0  0  0  0  0  0  0  0  0  0
   -5.5349  -20.1213   27.1523 H   0  0  0  0  0  0  0  0  0  0  0  0
   -6.6675  -21.3974   26.6914 H   0  0  0  0  0  0  0  0  0  0  0  0
   -5.6916  -20.5565   25.4570 H   0  0  0  0  0  0  0  0  0  0  0  0
   -2.9200  -22.9216   28.6406 H   0  0  0  0  0  0  0  0  0  0  0  0
   -0.0177  -18.9164   26.4919 H   0  0  0  0  0  0  0  0  0  0  0  0
   -2.3879  -17.2686   27.4184 H   0  0  0  0  0  0  0  0  0  0  0  0
   -3.3252  -15.6961   24.0913 H   0  0  0  0  0  0  0  0  0  0  0  0
   -2.2317  -15.1945   25.2735 H   0  0  0  0  0  0  0  0  0  0  0  0
   -0.6886  -14.2338   23.3751 H   0  0  0  0  0  0  0  0  0  0  0  0
    2.4715  -14.8269   21.0443 H   0  0  0  0  0  0  0  0  0  0  0  0
    1.1019  -16.0274   20.0581 H   0  0  0  0  0  0  0  0  0  0  0  0
    1.9816  -14.7415   17.1599 H   0  0  0  0  0  0  0  0  0  0  0  0
    4.4053  -13.7667   16.5678 H   0  0  0  0  0  0  0  0  0  0  0  0
    4.4415  -14.3043   20.5486 H   0  0  0  0  0  0  0  0  0  0  0  0
   -3.4138  -19.9505   24.8379 H   0  0  0  0  0  0  0  0  0  0  0  0
  1  2  1  0
  2  3  1  0
  2  4  1  0
  4  5  1  0
  5  6  2  0
  6  7  1  0
  7  8  2  0
  8  9  1  0
  9 10  2  0
 10 11  1  0
 11 12  1  0
 12 13  1  0
 13 14  2  0
 13 15  1  0
 15 16  1  0
 16 17  2  0
 17 18  1  0
 18 19  2  0
 19 20  1  0
 10 21  1  0
 21 22  2  0
 22  4  1  0
 22  7  1  0
 20 16  1  0
  1 23  1  0
  1 24  1  0
  1 25  1  0
  2 26  1  0
  3 27  1  0
  3 28  1  0
  3 29  1  0
  5 30  1  0
  8 31  1  0
  9 32  1  0
 11 33  1  0
 11 34  1  0
 12 35  1  0
 15 36  1  0
 15 37  1  0
 17 38  1  0
 18 39  1  0
 20 40  1  0
 21 41  1  0
M  END
>  <Energy>  (394) 
755.04844839735131

>  <compound_id>  (394) 
35267

>  <target_id>  (394) 
1

>  <reference_id>  (394) 
94

>  <inspiration_ids>  (394) 
[94, 122]

>  <energy_score>  (394) 
701.9376812222233

>  <distance_score>  (394) 
13.024321690164312

>  <path>  (394) 
/opt/xchem-fragalysis-2/maxwin/BulkDock/SCRATCH/511015/C35267-P94/C35267-P94.minimised.mol

>  <scratch_subdir>  (394) 
/opt/xchem-fragalysis-2/maxwin/BulkDock/SCRATCH/511015/C35267-P94

>  <fragmenstein_runtime>  (394) 
18.764208555221558

>  <fragmenstein_outcome>  (394) 
too moved

>  <fragmenstein_mode>  (394) 
expansion

>  <fragmenstein_error>  (394) 


$$$$
C35267-P122
     RDKit          3D

 41 43  0  0  0  0  0  0  0  0999 V2000
   -2.6104  -21.0357   28.0221 C   0  0  0  0  0  0  0  0  0  0  0  0
   -3.1869  -19.8948   27.0684 C   0  0  0  0  0  0  0  0  0  0  0  0
   -3.4802  -20.6892   25.7224 C   0  0  0  0  0  0  0  0  0  0  0  0
   -2.4004  -18.2845   26.9917 N   0  0  0  0  0  0  0  0  0  0  0  0
   -1.1806  -18.3477   26.5902 C   0  0  0  0  0  0  0  0  0  0  0  0
   -1.6998  -18.0297   25.4678 N   0  0  0  0  0  0  0  0  0  0  0  0
   -2.6000  -16.9328   25.6477 C   0  0  0  0  0  0  0  0  0  0  0  0
   -2.6431  -15.7305   24.7461 C   0  0  0  0  0  0  0  0  0  0  0  0
   -1.4875  -14.9883   24.5266 C   0  0  0  0  0  0  0  0  0  0  0  0
   -1.2612  -13.9916   25.4521 C   0  0  0  0  0  0  0  0  0  0  0  0
    0.8114  -13.5886   25.5290 C   0  0  0  0  0  0  0  0  0  0  0  0
    1.8618  -13.6764   23.8620 N   0  0  0  0  0  0  0  0  0  0  0  0
    2.6652  -12.6279   23.1239 C   0  0  0  0  0  0  0  0  0  0  0  0
    2.7847  -11.5049   23.3325 O   0  0  0  0  0  0  0  0  0  0  0  0
    3.5504  -13.1173   21.4638 C   0  0  0  0  0  0  0  0  0  0  0  0
    4.9123  -12.6920   20.3869 C   0  0  0  0  0  0  0  0  0  0  0  0
    5.4157  -13.3297   19.2657 C   0  0  0  0  0  0  0  0  0  0  0  0
    6.4279  -12.4797   18.7559 C   0  0  0  0  0  0  0  0  0  0  0  0
    6.5763  -11.3703   19.4770 N   0  0  0  0  0  0  0  0  0  0  0  0
    5.6807  -11.5169   20.4660 N   0  0  0  0  0  0  0  0  0  0  0  0
   -1.9099  -14.9793   26.8736 C   0  0  0  0  0  0  0  0  0  0  0  0
   -2.5434  -16.6880   27.1030 C   0  0  0  0  0  0  0  0  0  0  0  0
   -2.9314  -21.0027   29.0635 H   0  0  0  0  0  0  0  0  0  0  0  0
   -2.9383  -22.0355   27.7168 H   0  0  0  0  0  0  0  0  0  0  0  0
   -1.5264  -21.0481   28.0209 H   0  0  0  0  0  0  0  0  0  0  0  0
   -4.1990  -19.6551   27.3909 H   0  0  0  0  0  0  0  0  0  0  0  0
   -3.5240  -21.7732   25.8773 H   0  0  0  0  0  0  0  0  0  0  0  0
   -2.7829  -20.5469   24.9154 H   0  0  0  0  0  0  0  0  0  0  0  0
   -4.4915  -20.4758   25.3606 H   0  0  0  0  0  0  0  0  0  0  0  0
   -0.3407  -18.9103   26.8694 H   0  0  0  0  0  0  0  0  0  0  0  0
   -3.4004  -15.5717   23.9968 H   0  0  0  0  0  0  0  0  0  0  0  0
   -1.1183  -14.8205   23.5281 H   0  0  0  0  0  0  0  0  0  0  0  0
    1.0205  -12.5995   25.9850 H   0  0  0  0  0  0  0  0  0  0  0  0
    1.3255  -14.1033   26.3228 H   0  0  0  0  0  0  0  0  0  0  0  0
    1.9122  -14.5469   23.3641 H   0  0  0  0  0  0  0  0  0  0  0  0
    4.0453  -12.2491   21.8564 H   0  0  0  0  0  0  0  0  0  0  0  0
    3.5653  -14.1998   21.3264 H   0  0  0  0  0  0  0  0  0  0  0  0
    5.0869  -14.2740   18.8558 H   0  0  0  0  0  0  0  0  0  0  0  0
    7.0513  -12.6282   17.8829 H   0  0  0  0  0  0  0  0  0  0  0  0
    5.5966  -10.7692   21.1496 H   0  0  0  0  0  0  0  0  0  0  0  0
   -2.7258  -14.2986   26.8023 H   0  0  0  0  0  0  0  0  0  0  0  0
  1  2  1  0
  2  3  1  0
  2  4  1  0
  4  5  1  0
  5  6  2  0
  6  7  1  0
  7  8  2  0
  8  9  1  0
  9 10  2  0
 10 11  1  0
 11 12  1  0
 12 13  1  0
 13 14  2  0
 13 15  1  0
 15 16  1  0
 16 17  2  0
 17 18  1  0
 18 19  2  0
 19 20  1  0
 10 21  1  0
 21 22  2  0
 22  4  1  0
 22  7  1  0
 20 16  1  0
  1 23  1  0
  1 24  1  0
  1 25  1  0
  2 26  1  0
  3 27  1  0
  3 28  1  0
  3 29  1  0
  5 30  1  0
  8 31  1  0
  9 32  1  0
 11 33  1  0
 11 34  1  0
 12 35  1  0
 15 36  1  0
 15 37  1  0
 17 38  1  0
 18 39  1  0
 20 40  1  0
 21 41  1  0
M  END
>  <Energy>  (395) 
796.96332547571978

>  <compound_id>  (395) 
35267

>  <target_id>  (395) 
1

>  <reference_id>  (395) 
122

>  <inspiration_ids>  (395) 
[94, 122]

>  <energy_score>  (395) 
743.8525583005871

>  <distance_score>  (395) 
13.288083167950058

>  <path>  (395) 
/opt/xchem-fragalysis-2/maxwin/BulkDock/SCRATCH/511015/C35267-P122/C35267-P122.minimised.mol

>  <scratch_subdir>  (395) 
/opt/xchem-fragalysis-2/maxwin/BulkDock/SCRATCH/511015/C35267-P122

>  <fragmenstein_runtime>  (395) 
44.07933807373047

>  <fragmenstein_outcome>  (395) 
too moved

>  <fragmenstein_mode>  (395) 
expansion

>  <fragmenstein_error>  (395) 


$$$$
C35281-P94
     RDKit          3D

 38 41  0  0  0  0  0  0  0  0999 V2000
   -3.4775   -9.6586   17.1056 C   0  0  0  0  0  0  0  0  0  0  0  0
   -2.2834  -10.3872   18.1271 S   0  0  0  0  0  0  0  0  0  0  0  0
   -2.4873   -9.3510   19.5404 C   0  0  0  0  0  0  0  0  0  0  0  0
   -1.6945   -8.0906   19.7191 C   0  0  0  0  0  0  0  0  0  0  0  0
   -1.3907   -7.8391   21.1717 C   0  0  0  0  0  0  0  0  0  0  0  0
   -0.1606   -7.3673   21.4444 N   0  0  0  0  0  0  0  0  0  0  0  0
    0.5246   -8.5161   21.4163 C   0  0  0  0  0  0  0  0  0  0  0  0
    1.8826   -8.3442   20.9235 C   0  0  0  0  0  0  0  0  0  0  0  0
    2.9863   -7.7278   21.4969 C   0  0  0  0  0  0  0  0  0  0  0  0
    3.9191   -7.5404   20.4545 C   0  0  0  0  0  0  0  0  0  0  0  0
    3.4635   -7.9977   19.2847 N   0  0  0  0  0  0  0  0  0  0  0  0
    2.1994   -8.4088   19.5890 N   0  0  0  0  0  0  0  0  0  0  0  0
   -0.5127   -9.5980   21.5915 N   0  0  0  0  0  0  0  0  0  0  0  0
   -0.7274  -11.0212   21.7068 C   0  0  0  0  0  0  0  0  0  0  0  0
   -1.7415  -12.1831   20.7890 C   0  0  0  0  0  0  0  0  0  0  0  0
   -1.8412  -13.9662   20.8626 C   0  0  0  0  0  0  0  0  0  0  0  0
   -0.8703  -14.7311   22.2078 C   0  0  0  0  0  0  0  0  0  0  0  0
   -0.1112  -13.7349   23.0305 C   0  0  0  0  0  0  0  0  0  0  0  0
    1.1336  -14.0260   23.8028 N   0  0  0  0  0  0  0  0  0  0  0  0
    2.0966  -13.0547   24.1988 C   0  0  0  0  0  0  0  0  0  0  0  0
    1.8174  -11.9332   23.4949 N   0  0  0  0  0  0  0  0  0  0  0  0
    0.2963  -11.9472   22.7011 C   0  0  0  0  0  0  0  0  0  0  0  0
   -1.6166   -8.8669   21.9928 N   0  0  0  0  0  0  0  0  0  0  0  0
   -3.5900   -8.6170   17.3552 H   0  0  0  0  0  0  0  0  0  0  0  0
   -3.2339   -9.6433   16.0732 H   0  0  0  0  0  0  0  0  0  0  0  0
   -4.3805  -10.2607   17.1004 H   0  0  0  0  0  0  0  0  0  0  0  0
   -3.4607   -8.9913   19.4686 H   0  0  0  0  0  0  0  0  0  0  0  0
   -2.6299   -9.9716   20.4079 H   0  0  0  0  0  0  0  0  0  0  0  0
   -2.2978   -7.2611   19.4252 H   0  0  0  0  0  0  0  0  0  0  0  0
   -0.7830   -8.0964   19.1177 H   0  0  0  0  0  0  0  0  0  0  0  0
    3.0664   -7.4016   22.5232 H   0  0  0  0  0  0  0  0  0  0  0  0
    4.8976   -7.0803   20.5008 H   0  0  0  0  0  0  0  0  0  0  0  0
    1.6017   -8.7742   18.8527 H   0  0  0  0  0  0  0  0  0  0  0  0
   -2.4123  -11.8220   20.0311 H   0  0  0  0  0  0  0  0  0  0  0  0
   -2.1351  -14.7633   20.1767 H   0  0  0  0  0  0  0  0  0  0  0  0
   -0.3819  -15.6950   21.9277 H   0  0  0  0  0  0  0  0  0  0  0  0
    2.9926  -13.1804   24.7951 H   0  0  0  0  0  0  0  0  0  0  0  0
    2.4960  -11.2425   23.2450 H   0  0  0  0  0  0  0  0  0  0  0  0
  1  2  1  0
  2  3  1  0
  3  4  1  0
  4  5  1  0
  5  6  1  0
  6  7  2  0
  7  8  1  0
  8  9  2  0
  9 10  1  0
 10 11  2  0
 11 12  1  0
  7 13  1  0
 13 14  1  0
 14 15  2  0
 15 16  1  0
 16 17  2  0
 17 18  1  0
 18 19  1  0
 19 20  2  0
 20 21  1  0
 21 22  1  0
 13 23  1  0
 23  5  2  0
 12  8  1  0
 22 14  1  0
 22 18  2  0
  1 24  1  0
  1 25  1  0
  1 26  1  0
  3 27  1  0
  3 28  1  0
  4 29  1  0
  4 30  1  0
  9 31  1  0
 10 32  1  0
 12 33  1  0
 15 34  1  0
 16 35  1  0
 17 36  1  0
 20 37  1  0
 21 38  1  0
M  END
>  <Energy>  (396) 
512.94048250188769

>  <compound_id>  (396) 
35281

>  <target_id>  (396) 
1

>  <reference_id>  (396) 
94

>  <inspiration_ids>  (396) 
[94, 122]

>  <energy_score>  (396) 
406.3275374962336

>  <distance_score>  (396) 
16.358356796278745

>  <path>  (396) 
/opt/xchem-fragalysis-2/maxwin/BulkDock/SCRATCH/511015/C35281-P94/C35281-P94.minimised.mol

>  <scratch_subdir>  (396) 
/opt/xchem-fragalysis-2/maxwin/BulkDock/SCRATCH/511015/C35281-P94

>  <fragmenstein_runtime>  (396) 
31.783890962600708

>  <fragmenstein_outcome>  (396) 
too moved

>  <fragmenstein_mode>  (396) 
expansion

>  <fragmenstein_error>  (396) 


$$$$
C35281-P122
     RDKit          3D

 38 41  0  0  0  0  0  0  0  0999 V2000
   -2.1619  -16.3944   20.0807 C   0  0  0  0  0  0  0  0  0  0  0  0
   -2.1525  -14.7876   21.1333 S   0  0  0  0  0  0  0  0  0  0  0  0
   -2.8536  -15.1848   23.5484 C   0  0  0  0  0  0  0  0  0  0  0  0
   -2.1197  -14.6785   25.3242 C   0  0  0  0  0  0  0  0  0  0  0  0
   -2.0356  -15.2618   27.1725 C   0  0  0  0  0  0  0  0  0  0  0  0
   -1.3197  -14.5614   28.1261 N   0  0  0  0  0  0  0  0  0  0  0  0
   -0.8349  -15.3713   29.0361 C   0  0  0  0  0  0  0  0  0  0  0  0
    0.6006  -15.1131   29.3180 C   0  0  0  0  0  0  0  0  0  0  0  0
    1.7287  -15.9163   29.3528 C   0  0  0  0  0  0  0  0  0  0  0  0
    2.8443  -15.0500   29.1833 C   0  0  0  0  0  0  0  0  0  0  0  0
    2.4801  -13.7739   29.0830 N   0  0  0  0  0  0  0  0  0  0  0  0
    1.1400  -13.8357   29.2248 N   0  0  0  0  0  0  0  0  0  0  0  0
   -1.6646  -16.5240   28.9372 N   0  0  0  0  0  0  0  0  0  0  0  0
   -2.0522  -17.5385   29.8723 C   0  0  0  0  0  0  0  0  0  0  0  0
   -1.8681  -17.3797   31.2519 C   0  0  0  0  0  0  0  0  0  0  0  0
   -2.3315  -18.3402   32.1702 C   0  0  0  0  0  0  0  0  0  0  0  0
   -2.9293  -19.5339   31.7514 C   0  0  0  0  0  0  0  0  0  0  0  0
   -3.0764  -19.7414   30.3799 C   0  0  0  0  0  0  0  0  0  0  0  0
   -3.5060  -20.8597   29.7165 N   0  0  0  0  0  0  0  0  0  0  0  0
   -3.5580  -20.5084   28.4564 C   0  0  0  0  0  0  0  0  0  0  0  0
   -3.1421  -19.2233   28.2841 N   0  0  0  0  0  0  0  0  0  0  0  0
   -2.7098  -18.7321   29.4898 C   0  0  0  0  0  0  0  0  0  0  0  0
   -2.2679  -16.5289   27.6708 N   0  0  0  0  0  0  0  0  0  0  0  0
   -1.2845  -16.9980   20.3141 H   0  0  0  0  0  0  0  0  0  0  0  0
   -3.0720  -16.9712   20.1822 H   0  0  0  0  0  0  0  0  0  0  0  0
   -2.0795  -16.0958   19.0452 H   0  0  0  0  0  0  0  0  0  0  0  0
   -3.9341  -15.0126   23.5669 H   0  0  0  0  0  0  0  0  0  0  0  0
   -2.8981  -16.0851   24.0855 H   0  0  0  0  0  0  0  0  0  0  0  0
   -2.2822  -13.6140   25.5462 H   0  0  0  0  0  0  0  0  0  0  0  0
   -1.1548  -14.6314   24.8293 H   0  0  0  0  0  0  0  0  0  0  0  0
    1.7519  -16.9970   29.3784 H   0  0  0  0  0  0  0  0  0  0  0  0
    3.8925  -15.3123   29.1122 H   0  0  0  0  0  0  0  0  0  0  0  0
    0.6274  -12.9674   29.1901 H   0  0  0  0  0  0  0  0  0  0  0  0
   -1.3995  -16.4808   31.6493 H   0  0  0  0  0  0  0  0  0  0  0  0
   -2.2020  -18.1658   33.2370 H   0  0  0  0  0  0  0  0  0  0  0  0
   -3.2493  -20.2910   32.4583 H   0  0  0  0  0  0  0  0  0  0  0  0
   -3.8950  -21.1218   27.6327 H   0  0  0  0  0  0  0  0  0  0  0  0
   -3.1674  -18.7015   27.4126 H   0  0  0  0  0  0  0  0  0  0  0  0
  1  2  1  0
  2  3  1  0
  3  4  1  0
  4  5  1  0
  5  6  1  0
  6  7  2  0
  7  8  1  0
  8  9  2  0
  9 10  1  0
 10 11  2  0
 11 12  1  0
  7 13  1  0
 13 14  1  0
 14 15  2  0
 15 16  1  0
 16 17  2  0
 17 18  1  0
 18 19  1  0
 19 20  2  0
 20 21  1  0
 21 22  1  0
 13 23  1  0
 23  5  2  0
 12  8  1  0
 22 14  1  0
 22 18  2  0
  1 24  1  0
  1 25  1  0
  1 26  1  0
  3 27  1  0
  3 28  1  0
  4 29  1  0
  4 30  1  0
  9 31  1  0
 10 32  1  0
 12 33  1  0
 15 34  1  0
 16 35  1  0
 17 36  1  0
 20 37  1  0
 21 38  1  0
M  END
>  <Energy>  (397) 
372.49482198599139

>  <compound_id>  (397) 
35281

>  <target_id>  (397) 
1

>  <reference_id>  (397) 
122

>  <inspiration_ids>  (397) 
[94, 122]

>  <energy_score>  (397) 
265.8818769803448

>  <distance_score>  (397) 
15.973408312867258

>  <path>  (397) 
/opt/xchem-fragalysis-2/maxwin/BulkDock/SCRATCH/511015/C35281-P122/C35281-P122.minimised.mol

>  <scratch_subdir>  (397) 
/opt/xchem-fragalysis-2/maxwin/BulkDock/SCRATCH/511015/C35281-P122

>  <fragmenstein_runtime>  (397) 
19.46735191345215

>  <fragmenstein_outcome>  (397) 
too moved

>  <fragmenstein_mode>  (397) 
expansion

>  <fragmenstein_error>  (397) 


$$$$
C6664-P94
     RDKit          3D

 36 40  0  0  0  0  0  0  0  0999 V2000
  -11.7046  -23.3753   31.8164 C   0  0  0  0  0  0  0  0  0  0  0  0
  -11.4091  -22.1405   32.3103 C   0  0  0  0  0  0  0  0  0  0  0  0
  -11.2213  -21.0110   31.4811 C   0  0  0  0  0  0  0  0  0  0  0  0
  -11.6448  -20.9784   30.0899 C   0  0  0  0  0  0  0  0  0  0  0  0
  -12.0147  -22.2826   29.6895 C   0  0  0  0  0  0  0  0  0  0  0  0
  -11.9459  -23.4482   30.4758 C   0  0  0  0  0  0  0  0  0  0  0  0
  -12.3275  -22.3395   28.4417 N   0  0  0  0  0  0  0  0  0  0  0  0
  -11.8500  -21.2278   28.0277 C   0  0  0  0  0  0  0  0  0  0  0  0
  -12.1009  -19.7427   28.8814 N   0  0  0  0  0  0  0  0  0  0  0  0
  -11.2248  -17.9148   28.5676 C   0  0  0  0  0  0  0  0  0  0  0  0
   -9.6712  -17.5402   28.0670 C   0  0  0  0  0  0  0  0  0  0  0  0
   -8.5313  -16.2862   27.4295 C   0  0  0  0  0  0  0  0  0  0  0  0
   -8.5165  -14.8961   26.9082 C   0  0  0  0  0  0  0  0  0  0  0  0
   -7.1031  -13.6592   26.1920 C   0  0  0  0  0  0  0  0  0  0  0  0
   -6.5578  -12.6133   26.8153 N   0  0  0  0  0  0  0  0  0  0  0  0
   -6.5990  -11.3545   25.5417 O   0  0  0  0  0  0  0  0  0  0  0  0
   -5.3716  -11.8218   24.4024 C   0  0  0  0  0  0  0  0  0  0  0  0
   -3.7186  -10.9060   23.7636 C   0  0  0  0  0  0  0  0  0  0  0  0
   -3.5747  -10.3410   22.0164 C   0  0  0  0  0  0  0  0  0  0  0  0
   -2.4222   -9.6649   21.5478 C   0  0  0  0  0  0  0  0  0  0  0  0
   -1.9706   -9.3286   22.7114 N   0  0  0  0  0  0  0  0  0  0  0  0
   -3.1523   -9.4399   23.3994 N   0  0  0  0  0  0  0  0  0  0  0  0
   -6.0569  -12.9574   24.7070 N   0  0  0  0  0  0  0  0  0  0  0  0
  -10.1328  -15.2070   27.4560 C   0  0  0  0  0  0  0  0  0  0  0  0
  -11.3530  -16.4365   28.0860 N   0  0  0  0  0  0  0  0  0  0  0  0
  -11.7988  -24.2470   32.4548 H   0  0  0  0  0  0  0  0  0  0  0  0
  -11.3534  -22.0410   33.3866 H   0  0  0  0  0  0  0  0  0  0  0  0
  -10.8669  -20.1653   32.0505 H   0  0  0  0  0  0  0  0  0  0  0  0
  -12.1784  -24.3995   30.0124 H   0  0  0  0  0  0  0  0  0  0  0  0
  -11.4798  -21.2007   27.0130 H   0  0  0  0  0  0  0  0  0  0  0  0
   -8.9453  -18.3612   28.0248 H   0  0  0  0  0  0  0  0  0  0  0  0
   -7.5832  -16.7486   27.6901 H   0  0  0  0  0  0  0  0  0  0  0  0
   -4.1822  -10.7858   21.2311 H   0  0  0  0  0  0  0  0  0  0  0  0
   -1.9621   -9.4594   20.5907 H   0  0  0  0  0  0  0  0  0  0  0  0
   -3.7709   -8.6405   23.3043 H   0  0  0  0  0  0  0  0  0  0  0  0
  -10.7655  -14.2980   27.4445 H   0  0  0  0  0  0  0  0  0  0  0  0
  1  2  2  0
  2  3  1  0
  3  4  2  0
  4  5  1  0
  5  6  2  0
  5  7  1  0
  7  8  2  0
  8  9  1  0
  9 10  1  0
 10 11  2  0
 11 12  1  0
 12 13  2  0
 13 14  1  0
 14 15  2  0
 15 16  1  0
 16 17  1  0
 17 18  1  0
 18 19  2  0
 19 20  1  0
 20 21  2  0
 21 22  1  0
 17 23  2  0
 13 24  1  0
 24 25  2  0
  6  1  1  0
 25 10  1  0
  9  4  1  0
 23 14  1  0
 22 18  1  0
  1 26  1  0
  2 27  1  0
  3 28  1  0
  6 29  1  0
  8 30  1  0
 11 31  1  0
 12 32  1  0
 19 33  1  0
 20 34  1  0
 22 35  1  0
 24 36  1  0
M  END
>  <Energy>  (398) 
1383.0000526929928

>  <compound_id>  (398) 
6664

>  <target_id>  (398) 
1

>  <reference_id>  (398) 
94

>  <inspiration_ids>  (398) 
[94, 122]

>  <energy_score>  (398) 
1262.1712948145353

>  <distance_score>  (398) 
12.21726602114851

>  <path>  (398) 
/opt/xchem-fragalysis-2/maxwin/BulkDock/SCRATCH/511015/C6664-P94/C6664-P94.minimised.mol

>  <scratch_subdir>  (398) 
/opt/xchem-fragalysis-2/maxwin/BulkDock/SCRATCH/511015/C6664-P94

>  <fragmenstein_runtime>  (398) 
17.492284297943115

>  <fragmenstein_outcome>  (398) 
too moved

>  <fragmenstein_mode>  (398) 
expansion

>  <fragmenstein_error>  (398) 


$$$$
C6664-P122
     RDKit          3D

 36 40  0  0  0  0  0  0  0  0999 V2000
  -11.5402  -22.2679   29.6105 C   0  0  0  0  0  0  0  0  0  0  0  0
  -11.5071  -22.4853   28.2720 C   0  0  0  0  0  0  0  0  0  0  0  0
  -10.7751  -21.5760   27.4769 C   0  0  0  0  0  0  0  0  0  0  0  0
   -9.4816  -20.4074   27.7233 C   0  0  0  0  0  0  0  0  0  0  0  0
  -10.0067  -20.4722   29.1109 C   0  0  0  0  0  0  0  0  0  0  0  0
  -10.8054  -21.1980   30.0644 C   0  0  0  0  0  0  0  0  0  0  0  0
   -8.5501  -19.3852   28.6817 N   0  0  0  0  0  0  0  0  0  0  0  0
   -8.3130  -18.1840   28.3707 C   0  0  0  0  0  0  0  0  0  0  0  0
   -9.3358  -18.3694   27.6650 N   0  0  0  0  0  0  0  0  0  0  0  0
   -9.1228  -16.5563   27.1299 C   0  0  0  0  0  0  0  0  0  0  0  0
   -8.7068  -16.0299   25.9461 C   0  0  0  0  0  0  0  0  0  0  0  0
   -7.5945  -14.7224   25.4847 C   0  0  0  0  0  0  0  0  0  0  0  0
   -6.7959  -13.2525   25.8648 C   0  0  0  0  0  0  0  0  0  0  0  0
   -5.7508  -12.1232   24.5129 C   0  0  0  0  0  0  0  0  0  0  0  0
   -6.1853  -11.6323   23.1975 N   0  0  0  0  0  0  0  0  0  0  0  0
   -4.8918  -10.5374   22.2364 O   0  0  0  0  0  0  0  0  0  0  0  0
   -3.6674  -10.2337   22.9646 C   0  0  0  0  0  0  0  0  0  0  0  0
   -2.6155   -9.5615   22.0682 C   0  0  0  0  0  0  0  0  0  0  0  0
   -1.5142   -8.7285   22.1528 C   0  0  0  0  0  0  0  0  0  0  0  0
   -0.9758   -8.6310   20.8496 C   0  0  0  0  0  0  0  0  0  0  0  0
   -1.8211   -9.1366   19.9585 N   0  0  0  0  0  0  0  0  0  0  0  0
   -2.6379   -9.8636   20.7173 N   0  0  0  0  0  0  0  0  0  0  0  0
   -4.0503  -11.3630   24.1880 N   0  0  0  0  0  0  0  0  0  0  0  0
   -7.4723  -13.8196   27.1991 C   0  0  0  0  0  0  0  0  0  0  0  0
   -8.4332  -15.2583   27.7846 N   0  0  0  0  0  0  0  0  0  0  0  0
  -12.1077  -22.8893   30.2903 H   0  0  0  0  0  0  0  0  0  0  0  0
  -12.1267  -23.2247   27.7878 H   0  0  0  0  0  0  0  0  0  0  0  0
  -11.2977  -21.4623   26.5218 H   0  0  0  0  0  0  0  0  0  0  0  0
  -10.7613  -20.9933   31.1307 H   0  0  0  0  0  0  0  0  0  0  0  0
   -7.5361  -17.4494   28.4359 H   0  0  0  0  0  0  0  0  0  0  0  0
   -9.2155  -16.4270   25.0955 H   0  0  0  0  0  0  0  0  0  0  0  0
   -7.2310  -14.9665   24.4987 H   0  0  0  0  0  0  0  0  0  0  0  0
   -1.1283   -8.1892   23.0016 H   0  0  0  0  0  0  0  0  0  0  0  0
   -0.0763   -8.1354   20.5064 H   0  0  0  0  0  0  0  0  0  0  0  0
   -3.2597  -10.5115   20.2492 H   0  0  0  0  0  0  0  0  0  0  0  0
   -7.0807  -13.4480   28.1386 H   0  0  0  0  0  0  0  0  0  0  0  0
  1  2  2  0
  2  3  1  0
  3  4  2  0
  4  5  1  0
  5  6  2  0
  5  7  1  0
  7  8  2  0
  8  9  1  0
  9 10  1  0
 10 11  2  0
 11 12  1  0
 12 13  2  0
 13 14  1  0
 14 15  2  0
 15 16  1  0
 16 17  1  0
 17 18  1  0
 18 19  2  0
 19 20  1  0
 20 21  2  0
 21 22  1  0
 17 23  2  0
 13 24  1  0
 24 25  2  0
  6  1  1  0
 25 10  1  0
  9  4  1  0
 23 14  1  0
 22 18  1  0
  1 26  1  0
  2 27  1  0
  3 28  1  0
  6 29  1  0
  8 30  1  0
 11 31  1  0
 12 32  1  0
 19 33  1  0
 20 34  1  0
 22 35  1  0
 24 36  1  0
M  END
>  <Energy>  (399) 
1483.5957083372407

>  <compound_id>  (399) 
6664

>  <target_id>  (399) 
1

>  <reference_id>  (399) 
122

>  <inspiration_ids>  (399) 
[94, 122]

>  <energy_score>  (399) 
1362.7669504587698

>  <distance_score>  (399) 
11.714857668503543

>  <path>  (399) 
/opt/xchem-fragalysis-2/maxwin/BulkDock/SCRATCH/511015/C6664-P122/C6664-P122.minimised.mol

>  <scratch_subdir>  (399) 
/opt/xchem-fragalysis-2/maxwin/BulkDock/SCRATCH/511015/C6664-P122

>  <fragmenstein_runtime>  (399) 
12.89223027229309

>  <fragmenstein_outcome>  (399) 
too moved

>  <fragmenstein_mode>  (399) 
expansion

>  <fragmenstein_error>  (399) 


$$$$
C35282-P94
     RDKit          3D

 27 30  0  0  0  0  0  0  0  0999 V2000
    6.4296  -13.3282   27.2897 C   0  0  0  0  0  0  0  0  0  0  0  0
    5.7616  -14.5719   27.2426 C   0  0  0  0  0  0  0  0  0  0  0  0
    4.8965  -14.5942   28.3342 C   0  0  0  0  0  0  0  0  0  0  0  0
    3.9398  -15.6140   28.7751 C   0  0  0  0  0  0  0  0  0  0  0  0
    3.0281  -15.5765   29.7652 N   0  0  0  0  0  0  0  0  0  0  0  0
    2.1901  -16.7132   29.5348 C   0  0  0  0  0  0  0  0  0  0  0  0
    0.8602  -17.1012   30.2127 C   0  0  0  0  0  0  0  0  0  0  0  0
    0.6718  -17.0004   31.5986 C   0  0  0  0  0  0  0  0  0  0  0  0
   -0.5028  -17.4636   32.2733 C   0  0  0  0  0  0  0  0  0  0  0  0
   -1.5134  -18.0687   31.5173 C   0  0  0  0  0  0  0  0  0  0  0  0
   -2.7343  -18.6285   31.8257 N   0  0  0  0  0  0  0  0  0  0  0  0
   -3.3003  -19.0715   30.6616 C   0  0  0  0  0  0  0  0  0  0  0  0
   -2.5160  -18.8357   29.6313 N   0  0  0  0  0  0  0  0  0  0  0  0
   -1.4069  -18.1913   30.1409 C   0  0  0  0  0  0  0  0  0  0  0  0
   -0.2421  -17.6719   29.5010 C   0  0  0  0  0  0  0  0  0  0  0  0
    2.7328  -17.4871   28.5832 N   0  0  0  0  0  0  0  0  0  0  0  0
    3.8280  -16.8029   28.0964 O   0  0  0  0  0  0  0  0  0  0  0  0
    5.1003  -13.3798   28.9370 N   0  0  0  0  0  0  0  0  0  0  0  0
    6.0228  -12.5913   28.3255 N   0  0  0  0  0  0  0  0  0  0  0  0
    7.1781  -12.9330   26.6150 H   0  0  0  0  0  0  0  0  0  0  0  0
    5.8842  -15.3530   26.5060 H   0  0  0  0  0  0  0  0  0  0  0  0
    1.4677  -16.5664   32.2050 H   0  0  0  0  0  0  0  0  0  0  0  0
   -0.5865  -17.3623   33.3514 H   0  0  0  0  0  0  0  0  0  0  0  0
   -3.1529  -18.6926   32.7423 H   0  0  0  0  0  0  0  0  0  0  0  0
   -4.2757  -19.5415   30.6297 H   0  0  0  0  0  0  0  0  0  0  0  0
   -0.2359  -17.7399   28.4215 H   0  0  0  0  0  0  0  0  0  0  0  0
    4.6387  -13.0300   29.7700 H   0  0  0  0  0  0  0  0  0  0  0  0
  1  2  1  0
  2  3  2  0
  3  4  1  0
  4  5  2  0
  5  6  1  0
  6  7  1  0
  7  8  2  0
  8  9  1  0
  9 10  2  0
 10 11  1  0
 11 12  1  0
 12 13  2  0
 13 14  1  0
 14 15  2  0
  6 16  2  0
 16 17  1  0
  3 18  1  0
 18 19  1  0
 19  1  2  0
 17  4  1  0
 15  7  1  0
 14 10  1  0
  1 20  1  0
  2 21  1  0
  8 22  1  0
  9 23  1  0
 11 24  1  0
 12 25  1  0
 15 26  1  0
 18 27  1  0
M  END
>  <Energy>  (400) 
33.582305151969166

>  <compound_id>  (400) 
35282

>  <target_id>  (400) 
1

>  <reference_id>  (400) 
94

>  <inspiration_ids>  (400) 
[94, 122]

>  <energy_score>  (400) 
-12.166425143737342

>  <distance_score>  (400) 
14.901650366635579

>  <path>  (400) 
/opt/xchem-fragalysis-2/maxwin/BulkDock/SCRATCH/511015/C35282-P94/C35282-P94.minimised.mol

>  <scratch_subdir>  (400) 
/opt/xchem-fragalysis-2/maxwin/BulkDock/SCRATCH/511015/C35282-P94

>  <fragmenstein_runtime>  (400) 
10.826272249221802

>  <fragmenstein_outcome>  (400) 
too moved

>  <fragmenstein_mode>  (400) 
expansion

>  <fragmenstein_error>  (400) 


$$$$
C35282-P122
     RDKit          3D

 27 30  0  0  0  0  0  0  0  0999 V2000
    5.8912  -21.1296   21.0300 C   0  0  0  0  0  0  0  0  0  0  0  0
    5.0057  -22.1409   20.6052 C   0  0  0  0  0  0  0  0  0  0  0  0
    3.8111  -21.9195   21.2751 C   0  0  0  0  0  0  0  0  0  0  0  0
    2.5958  -22.7270   21.3349 C   0  0  0  0  0  0  0  0  0  0  0  0
    1.9263  -23.0801   22.4349 N   0  0  0  0  0  0  0  0  0  0  0  0
    0.7755  -23.7578   21.9933 C   0  0  0  0  0  0  0  0  0  0  0  0
   -0.4639  -23.9464   22.8532 C   0  0  0  0  0  0  0  0  0  0  0  0
   -1.7521  -23.7089   22.3173 C   0  0  0  0  0  0  0  0  0  0  0  0
   -2.9261  -23.6149   23.1067 C   0  0  0  0  0  0  0  0  0  0  0  0
   -2.7705  -23.7683   24.4823 C   0  0  0  0  0  0  0  0  0  0  0  0
   -3.6259  -23.5935   25.5430 N   0  0  0  0  0  0  0  0  0  0  0  0
   -2.9155  -23.8105   26.6921 C   0  0  0  0  0  0  0  0  0  0  0  0
   -1.6804  -24.1806   26.4339 N   0  0  0  0  0  0  0  0  0  0  0  0
   -1.5532  -24.1106   25.0595 C   0  0  0  0  0  0  0  0  0  0  0  0
   -0.3943  -24.2165   24.2394 C   0  0  0  0  0  0  0  0  0  0  0  0
    0.8178  -23.9670   20.6660 N   0  0  0  0  0  0  0  0  0  0  0  0
    2.0029  -23.3271   20.2387 O   0  0  0  0  0  0  0  0  0  0  0  0
    4.0110  -20.7121   21.9145 N   0  0  0  0  0  0  0  0  0  0  0  0
    5.2991  -20.2721   21.8500 N   0  0  0  0  0  0  0  0  0  0  0  0
    6.9328  -20.9869   20.7782 H   0  0  0  0  0  0  0  0  0  0  0  0
    5.2282  -22.9760   19.9570 H   0  0  0  0  0  0  0  0  0  0  0  0
   -1.8498  -23.5164   21.2467 H   0  0  0  0  0  0  0  0  0  0  0  0
   -3.8797  -23.3576   22.6554 H   0  0  0  0  0  0  0  0  0  0  0  0
   -4.6000  -23.3309   25.4802 H   0  0  0  0  0  0  0  0  0  0  0  0
   -3.3432  -23.6826   27.6771 H   0  0  0  0  0  0  0  0  0  0  0  0
    0.5627  -24.4199   24.7112 H   0  0  0  0  0  0  0  0  0  0  0  0
    3.3351  -20.1665   22.4495 H   0  0  0  0  0  0  0  0  0  0  0  0
  1  2  1  0
  2  3  2  0
  3  4  1  0
  4  5  2  0
  5  6  1  0
  6  7  1  0
  7  8  2  0
  8  9  1  0
  9 10  2  0
 10 11  1  0
 11 12  1  0
 12 13  2  0
 13 14  1  0
 14 15  2  0
  6 16  2  0
 16 17  1  0
  3 18  1  0
 18 19  1  0
 19  1  2  0
 17  4  1  0
 15  7  1  0
 14 10  1  0
  1 20  1  0
  2 21  1  0
  8 22  1  0
  9 23  1  0
 11 24  1  0
 12 25  1  0
 15 26  1  0
 18 27  1  0
M  END
>  <Energy>  (401) 
33.728314973694545

>  <compound_id>  (401) 
35282

>  <target_id>  (401) 
1

>  <reference_id>  (401) 
122

>  <inspiration_ids>  (401) 
[94, 122]

>  <energy_score>  (401) 
-12.020415322012866

>  <distance_score>  (401) 
16.04439293090447

>  <path>  (401) 
/opt/xchem-fragalysis-2/maxwin/BulkDock/SCRATCH/511015/C35282-P122/C35282-P122.minimised.mol

>  <scratch_subdir>  (401) 
/opt/xchem-fragalysis-2/maxwin/BulkDock/SCRATCH/511015/C35282-P122

>  <fragmenstein_runtime>  (401) 
14.097579717636108

>  <fragmenstein_outcome>  (401) 
too moved

>  <fragmenstein_mode>  (401) 
expansion

>  <fragmenstein_error>  (401) 


$$$$
C69365-P97
     RDKit          3D

 40 42  0  0  0  0  0  0  0  0999 V2000
    2.8720  -13.2131   23.5981 C   0  0  0  0  0  0  0  0  0  0  0  0
    3.1515  -14.3093   22.4643 N   0  0  0  0  0  0  0  0  0  0  0  0
    3.8473  -15.6557   23.6631 C   0  0  0  0  0  0  0  0  0  0  0  0
    3.2906  -17.5246   24.2804 C   0  0  0  0  0  0  0  0  0  0  0  0
    3.3560  -18.3104   25.6572 N   0  0  0  0  0  0  0  0  0  0  0  0
    2.7781  -19.5864   25.7823 C   0  0  0  0  0  0  0  0  0  0  0  0
    2.6017  -19.8034   27.1250 C   0  0  0  0  0  0  0  0  0  0  0  0
    3.0743  -18.7337   27.8379 N   0  0  0  0  0  0  0  0  0  0  0  0
    3.5282  -17.8726   26.9435 C   0  0  0  0  0  0  0  0  0  0  0  0
    4.2331  -13.1146   21.1601 C   0  0  0  0  0  0  0  0  0  0  0  0
    6.0367  -12.4983   20.4888 C   0  0  0  0  0  0  0  0  0  0  0  0
    7.6078  -13.1203   20.9051 C   0  0  0  0  0  0  0  0  0  0  0  0
    9.0529  -13.3122   19.8769 C   0  0  0  0  0  0  0  0  0  0  0  0
   10.2694  -14.5065   19.6474 C   0  0  0  0  0  0  0  0  0  0  0  0
   10.8057  -14.3336   18.3965 F   0  0  0  0  0  0  0  0  0  0  0  0
   11.3621  -14.3743   20.4787 F   0  0  0  0  0  0  0  0  0  0  0  0
   10.0098  -15.8241   19.7460 F   0  0  0  0  0  0  0  0  0  0  0  0
    9.3272  -11.7535   18.8514 C   0  0  0  0  0  0  0  0  0  0  0  0
    8.0610  -10.6542   18.8359 C   0  0  0  0  0  0  0  0  0  0  0  0
    8.4208   -9.0547   18.9707 N   0  0  0  0  0  0  0  0  0  0  0  0
    6.9355   -8.0543   19.6702 C   0  0  0  0  0  0  0  0  0  0  0  0
    6.9957  -10.0344   19.7057 C   0  0  0  0  0  0  0  0  0  0  0  0
    6.4505  -11.1919   19.3549 C   0  0  0  0  0  0  0  0  0  0  0  0
    1.9258  -13.2493   24.1094 H   0  0  0  0  0  0  0  0  0  0  0  0
    3.4991  -13.3345   24.4441 H   0  0  0  0  0  0  0  0  0  0  0  0
    2.8956  -12.2222   23.1677 H   0  0  0  0  0  0  0  0  0  0  0  0
    3.9342  -15.0290   24.5678 H   0  0  0  0  0  0  0  0  0  0  0  0
    4.9193  -15.6700   23.7941 H   0  0  0  0  0  0  0  0  0  0  0  0
    2.2782  -17.5760   24.5438 H   0  0  0  0  0  0  0  0  0  0  0  0
    3.3028  -18.2933   23.5043 H   0  0  0  0  0  0  0  0  0  0  0  0
    2.5149  -20.1558   24.9008 H   0  0  0  0  0  0  0  0  0  0  0  0
    2.1615  -20.6627   27.6120 H   0  0  0  0  0  0  0  0  0  0  0  0
    3.9661  -16.9113   27.1724 H   0  0  0  0  0  0  0  0  0  0  0  0
    3.9657  -12.1706   21.6093 H   0  0  0  0  0  0  0  0  0  0  0  0
    3.7960  -13.1677   20.1902 H   0  0  0  0  0  0  0  0  0  0  0  0
    8.0310  -12.5279   21.7116 H   0  0  0  0  0  0  0  0  0  0  0  0
   10.2084  -11.5837   18.2084 H   0  0  0  0  0  0  0  0  0  0  0  0
    9.2433   -8.7616   19.4817 H   0  0  0  0  0  0  0  0  0  0  0  0
    6.9495   -7.4368   20.5430 H   0  0  0  0  0  0  0  0  0  0  0  0
    6.5673  -10.4375   20.6108 H   0  0  0  0  0  0  0  0  0  0  0  0
  1  2  1  0
  2  3  1  0
  3  4  1  0
  4  5  1  0
  5  6  1  0
  6  7  2  0
  7  8  1  0
  8  9  2  0
  2 10  1  0
 10 11  1  0
 11 12  2  0
 12 13  1  0
 13 14  1  0
 14 15  1  0
 14 16  1  0
 14 17  1  0
 13 18  2  0
 18 19  1  0
 19 20  1  0
 20 21  1  0
 21 22  2  0
 22 23  1  0
  9  5  1  0
 23 11  1  0
 23 19  2  0
  1 24  1  0
  1 25  1  0
  1 26  1  0
  3 27  1  0
  3 28  1  0
  4 29  1  0
  4 30  1  0
  6 31  1  0
  7 32  1  0
  9 33  1  0
 10 34  1  0
 10 35  1  0
 12 36  1  0
 18 37  1  0
 20 38  1  0
 21 39  1  0
 22 40  1  0
M  END
>  <Energy>  (402) 
1256.7263099837717

>  <compound_id>  (402) 
69365

>  <target_id>  (402) 
1

>  <reference_id>  (402) 
97

>  <inspiration_ids>  (402) 
[97, 35]

>  <energy_score>  (402) 
1166.1803839451873

>  <distance_score>  (402) 
14.003798361342255

>  <path>  (402) 
/opt/xchem-fragalysis-2/maxwin/BulkDock/SCRATCH/511015/C69365-P97/C69365-P97.minimised.mol

>  <scratch_subdir>  (402) 
/opt/xchem-fragalysis-2/maxwin/BulkDock/SCRATCH/511015/C69365-P97

>  <fragmenstein_runtime>  (402) 
11.974550247192383

>  <fragmenstein_outcome>  (402) 
too moved

>  <fragmenstein_mode>  (402) 
expansion

>  <fragmenstein_error>  (402) 


$$$$
C69365-P35
     RDKit          3D

 40 42  0  0  0  0  0  0  0  0999 V2000
    3.8335  -14.8708   23.5745 C   0  0  0  0  0  0  0  0  0  0  0  0
    3.1404  -14.1093   22.2992 N   0  0  0  0  0  0  0  0  0  0  0  0
    1.3781  -14.4957   23.3426 C   0  0  0  0  0  0  0  0  0  0  0  0
   -0.6059  -14.3772   24.0553 C   0  0  0  0  0  0  0  0  0  0  0  0
   -2.1884  -15.2300   24.7116 N   0  0  0  0  0  0  0  0  0  0  0  0
   -3.4912  -15.4611   24.1237 C   0  0  0  0  0  0  0  0  0  0  0  0
   -4.3736  -15.9874   25.0363 C   0  0  0  0  0  0  0  0  0  0  0  0
   -3.8924  -15.8207   26.2687 N   0  0  0  0  0  0  0  0  0  0  0  0
   -2.7617  -15.1777   26.0769 C   0  0  0  0  0  0  0  0  0  0  0  0
    4.3549  -12.9171   21.0174 C   0  0  0  0  0  0  0  0  0  0  0  0
    6.0818  -12.2213   19.9605 C   0  0  0  0  0  0  0  0  0  0  0  0
    6.3683  -11.2834   18.4611 C   0  0  0  0  0  0  0  0  0  0  0  0
    7.8575  -10.8998   17.1678 C   0  0  0  0  0  0  0  0  0  0  0  0
    8.5453  -10.6191   15.4757 C   0  0  0  0  0  0  0  0  0  0  0  0
    7.8032  -10.4726   14.3258 F   0  0  0  0  0  0  0  0  0  0  0  0
    9.3045  -11.7432   14.9814 F   0  0  0  0  0  0  0  0  0  0  0  0
    9.5694   -9.6975   15.5434 F   0  0  0  0  0  0  0  0  0  0  0  0
    9.1327  -11.5201   17.2082 C   0  0  0  0  0  0  0  0  0  0  0  0
    9.2620  -11.4748   18.5585 C   0  0  0  0  0  0  0  0  0  0  0  0
   10.3165  -10.6474   18.5593 N   0  0  0  0  0  0  0  0  0  0  0  0
    8.9371   -9.5325   18.8170 C   0  0  0  0  0  0  0  0  0  0  0  0
    7.9756  -10.2982   19.3744 C   0  0  0  0  0  0  0  0  0  0  0  0
    7.8583  -11.6238   19.7604 C   0  0  0  0  0  0  0  0  0  0  0  0
    3.6851  -14.2523   24.4562 H   0  0  0  0  0  0  0  0  0  0  0  0
    4.8601  -15.1537   23.8080 H   0  0  0  0  0  0  0  0  0  0  0  0
    3.6393  -15.8954   23.3595 H   0  0  0  0  0  0  0  0  0  0  0  0
    1.6876  -13.4532   23.9679 H   0  0  0  0  0  0  0  0  0  0  0  0
    0.7286  -14.7086   22.3922 H   0  0  0  0  0  0  0  0  0  0  0  0
   -0.9329  -13.7135   24.8411 H   0  0  0  0  0  0  0  0  0  0  0  0
   -1.0290  -14.5631   23.0591 H   0  0  0  0  0  0  0  0  0  0  0  0
   -3.6795  -15.3306   23.0777 H   0  0  0  0  0  0  0  0  0  0  0  0
   -5.3607  -16.3882   24.8480 H   0  0  0  0  0  0  0  0  0  0  0  0
   -2.1694  -14.8727   26.9175 H   0  0  0  0  0  0  0  0  0  0  0  0
    4.1496  -12.0080   21.5627 H   0  0  0  0  0  0  0  0  0  0  0  0
    3.8845  -13.1123   20.0878 H   0  0  0  0  0  0  0  0  0  0  0  0
    5.7436  -10.4169   18.5979 H   0  0  0  0  0  0  0  0  0  0  0  0
   10.0322  -11.5832   16.6073 H   0  0  0  0  0  0  0  0  0  0  0  0
   11.0333  -10.4542   17.8590 H   0  0  0  0  0  0  0  0  0  0  0  0
    9.3757   -8.6840   19.3687 H   0  0  0  0  0  0  0  0  0  0  0  0
    7.1712   -9.9664   19.8114 H   0  0  0  0  0  0  0  0  0  0  0  0
  1  2  1  0
  2  3  1  0
  3  4  1  0
  4  5  1  0
  5  6  1  0
  6  7  2  0
  7  8  1  0
  8  9  2  0
  2 10  1  0
 10 11  1  0
 11 12  2  0
 12 13  1  0
 13 14  1  0
 14 15  1  0
 14 16  1  0
 14 17  1  0
 13 18  2  0
 18 19  1  0
 19 20  1  0
 20 21  1  0
 21 22  2  0
 22 23  1  0
  9  5  1  0
 23 11  1  0
 23 19  2  0
  1 24  1  0
  1 25  1  0
  1 26  1  0
  3 27  1  0
  3 28  1  0
  4 29  1  0
  4 30  1  0
  6 31  1  0
  7 32  1  0
  9 33  1  0
 10 34  1  0
 10 35  1  0
 12 36  1  0
 18 37  1  0
 20 38  1  0
 21 39  1  0
 22 40  1  0
M  END
>  <Energy>  (403) 
1785.6442643485839

>  <compound_id>  (403) 
69365

>  <target_id>  (403) 
1

>  <reference_id>  (403) 
35

>  <inspiration_ids>  (403) 
[97, 35]

>  <energy_score>  (403) 
1695.0983383100106

>  <distance_score>  (403) 
13.036261795543338

>  <path>  (403) 
/opt/xchem-fragalysis-2/maxwin/BulkDock/SCRATCH/511015/C69365-P35/C69365-P35.minimised.mol

>  <scratch_subdir>  (403) 
/opt/xchem-fragalysis-2/maxwin/BulkDock/SCRATCH/511015/C69365-P35

>  <fragmenstein_runtime>  (403) 
19.762909173965454

>  <fragmenstein_outcome>  (403) 
too moved

>  <fragmenstein_mode>  (403) 
expansion

>  <fragmenstein_error>  (403) 


$$$$
C23987-P97
     RDKit          3D

 42 44  0  0  0  0  0  0  0  0999 V2000
   -0.5150  -11.5130   29.1538 C   0  0  0  0  0  0  0  0  0  0  0  0
    0.8035  -11.5278   28.3335 C   0  0  0  0  0  0  0  0  0  0  0  0
    1.3287  -10.0851   28.4459 C   0  0  0  0  0  0  0  0  0  0  0  0
    0.4744  -12.1865   26.8687 C   0  0  0  0  0  0  0  0  0  0  0  0
    1.4084  -13.1663   25.6924 C   0  0  0  0  0  0  0  0  0  0  0  0
    2.0679  -12.2224   23.9779 C   0  0  0  0  0  0  0  0  0  0  0  0
    1.1618  -11.8676   23.3136 O   0  0  0  0  0  0  0  0  0  0  0  0
    3.4311  -11.9678   23.8014 N   0  0  0  0  0  0  0  0  0  0  0  0
    4.3279  -10.8819   22.6205 C   0  0  0  0  0  0  0  0  0  0  0  0
    3.8976   -9.4166   22.7167 C   0  0  0  0  0  0  0  0  0  0  0  0
    4.5267   -8.1236   22.5757 C   0  0  0  0  0  0  0  0  0  0  0  0
    5.5557   -8.2522   21.6887 C   0  0  0  0  0  0  0  0  0  0  0  0
    5.8825   -7.4281   20.6513 N   0  0  0  0  0  0  0  0  0  0  0  0
    6.4581   -8.2152   19.6917 C   0  0  0  0  0  0  0  0  0  0  0  0
    6.9312   -9.3661   20.2936 C   0  0  0  0  0  0  0  0  0  0  0  0
    6.2352   -9.4554   21.5438 C   0  0  0  0  0  0  0  0  0  0  0  0
    5.7949  -10.5696   22.3746 C   0  0  0  0  0  0  0  0  0  0  0  0
    1.8103  -13.8713   27.3934 N   0  0  0  0  0  0  0  0  0  0  0  0
    0.8902  -14.3913   28.3516 C   0  0  0  0  0  0  0  0  0  0  0  0
    1.5838  -15.0884   29.3060 C   0  0  0  0  0  0  0  0  0  0  0  0
    2.9114  -15.0053   29.0576 N   0  0  0  0  0  0  0  0  0  0  0  0
    3.0388  -14.2689   27.9697 C   0  0  0  0  0  0  0  0  0  0  0  0
   -1.2710  -10.8893   28.6633 H   0  0  0  0  0  0  0  0  0  0  0  0
   -0.3449  -11.1090   30.1583 H   0  0  0  0  0  0  0  0  0  0  0  0
   -0.9423  -12.5094   29.2820 H   0  0  0  0  0  0  0  0  0  0  0  0
    1.5232  -12.1134   28.9053 H   0  0  0  0  0  0  0  0  0  0  0  0
    0.5526   -9.3473   28.2130 H   0  0  0  0  0  0  0  0  0  0  0  0
    1.6262   -9.8862   29.4839 H   0  0  0  0  0  0  0  0  0  0  0  0
    2.2093   -9.8776   27.8408 H   0  0  0  0  0  0  0  0  0  0  0  0
   -0.4095  -12.8262   27.0153 H   0  0  0  0  0  0  0  0  0  0  0  0
   -0.0628  -11.4135   26.4320 H   0  0  0  0  0  0  0  0  0  0  0  0
    2.4274  -13.5398   25.7521 H   0  0  0  0  0  0  0  0  0  0  0  0
    3.9371  -12.4813   24.4911 H   0  0  0  0  0  0  0  0  0  0  0  0
    2.8871   -9.2048   22.3727 H   0  0  0  0  0  0  0  0  0  0  0  0
    3.9022   -7.2320   22.5900 H   0  0  0  0  0  0  0  0  0  0  0  0
    5.4885   -6.5113   20.4861 H   0  0  0  0  0  0  0  0  0  0  0  0
    6.4849   -7.8136   18.7002 H   0  0  0  0  0  0  0  0  0  0  0  0
    7.4513  -10.1701   19.7888 H   0  0  0  0  0  0  0  0  0  0  0  0
    6.6427  -11.2007   22.6300 H   0  0  0  0  0  0  0  0  0  0  0  0
   -0.1756  -14.2494   28.2776 H   0  0  0  0  0  0  0  0  0  0  0  0
    1.1926  -15.6259   30.1593 H   0  0  0  0  0  0  0  0  0  0  0  0
    3.9929  -14.0838   27.4956 H   0  0  0  0  0  0  0  0  0  0  0  0
  1  2  1  0
  2  3  1  0
  2  4  1  0
  4  5  1  0
  5  6  1  0
  6  7  2  0
  6  8  1  0
  8  9  1  0
  9 10  2  0
 10 11  1  0
 11 12  2  0
 12 13  1  0
 13 14  1  0
 14 15  2  0
 15 16  1  0
 16 17  2  0
  5 18  1  0
 18 19  1  0
 19 20  2  0
 20 21  1  0
 21 22  2  0
 17  9  1  0
 22 18  1  0
 16 12  1  0
  1 23  1  0
  1 24  1  0
  1 25  1  0
  2 26  1  0
  3 27  1  0
  3 28  1  0
  3 29  1  0
  4 30  1  0
  4 31  1  0
  5 32  1  0
  8 33  1  0
 10 34  1  0
 11 35  1  0
 13 36  1  0
 14 37  1  0
 15 38  1  0
 17 39  1  0
 19 40  1  0
 20 41  1  0
 22 42  1  0
M  END
>  <Energy>  (404) 
464.55979509100581

>  <compound_id>  (404) 
23987

>  <target_id>  (404) 
1

>  <reference_id>  (404) 
97

>  <inspiration_ids>  (404) 
[97, 35]

>  <energy_score>  (404) 
396.3403408760428

>  <distance_score>  (404) 
14.809491677591962

>  <path>  (404) 
/opt/xchem-fragalysis-2/maxwin/BulkDock/SCRATCH/511015/C23987-P97/C23987-P97.minimised.mol

>  <scratch_subdir>  (404) 
/opt/xchem-fragalysis-2/maxwin/BulkDock/SCRATCH/511015/C23987-P97

>  <fragmenstein_runtime>  (404) 
11.406579494476318

>  <fragmenstein_outcome>  (404) 
too moved

>  <fragmenstein_mode>  (404) 
expansion

>  <fragmenstein_error>  (404) 


$$$$
C23987-P35
     RDKit          3D

 42 44  0  0  0  0  0  0  0  0999 V2000
   -3.3879  -25.7379   20.5769 C   0  0  0  0  0  0  0  0  0  0  0  0
   -3.8299  -24.3078   20.9024 C   0  0  0  0  0  0  0  0  0  0  0  0
   -3.2758  -23.9019   22.2702 C   0  0  0  0  0  0  0  0  0  0  0  0
   -5.3727  -24.2180   20.8422 C   0  0  0  0  0  0  0  0  0  0  0  0
   -5.9481  -22.7787   20.9790 C   0  0  0  0  0  0  0  0  0  0  0  0
   -5.6182  -21.9263   19.6999 C   0  0  0  0  0  0  0  0  0  0  0  0
   -5.1629  -22.4995   18.7474 O   0  0  0  0  0  0  0  0  0  0  0  0
   -5.8437  -20.5108   19.9341 N   0  0  0  0  0  0  0  0  0  0  0  0
   -5.5086  -19.3761   19.1561 C   0  0  0  0  0  0  0  0  0  0  0  0
   -5.9374  -18.1281   19.6110 C   0  0  0  0  0  0  0  0  0  0  0  0
   -5.0777  -17.0245   19.6159 C   0  0  0  0  0  0  0  0  0  0  0  0
   -3.7509  -17.3033   19.2833 C   0  0  0  0  0  0  0  0  0  0  0  0
   -2.5696  -16.7454   19.7224 N   0  0  0  0  0  0  0  0  0  0  0  0
   -1.5794  -17.6601   19.5724 C   0  0  0  0  0  0  0  0  0  0  0  0
   -2.0112  -18.5325   18.6075 C   0  0  0  0  0  0  0  0  0  0  0  0
   -3.4052  -18.4601   18.6090 C   0  0  0  0  0  0  0  0  0  0  0  0
   -4.3614  -19.4551   18.3536 C   0  0  0  0  0  0  0  0  0  0  0  0
   -7.3416  -22.8431   21.4371 N   0  0  0  0  0  0  0  0  0  0  0  0
   -8.4735  -22.4045   20.8228 C   0  0  0  0  0  0  0  0  0  0  0  0
   -9.4965  -22.6904   21.6971 C   0  0  0  0  0  0  0  0  0  0  0  0
   -9.0266  -23.3425   22.8002 N   0  0  0  0  0  0  0  0  0  0  0  0
   -7.7245  -23.3883   22.6406 C   0  0  0  0  0  0  0  0  0  0  0  0
   -3.7377  -26.0364   19.5830 H   0  0  0  0  0  0  0  0  0  0  0  0
   -2.2957  -25.8188   20.5827 H   0  0  0  0  0  0  0  0  0  0  0  0
   -3.7846  -26.4527   21.3061 H   0  0  0  0  0  0  0  0  0  0  0  0
   -3.3885  -23.6469   20.1482 H   0  0  0  0  0  0  0  0  0  0  0  0
   -3.7407  -24.4810   23.0754 H   0  0  0  0  0  0  0  0  0  0  0  0
   -3.4428  -22.8400   22.4721 H   0  0  0  0  0  0  0  0  0  0  0  0
   -2.1941  -24.0695   22.3157 H   0  0  0  0  0  0  0  0  0  0  0  0
   -5.7715  -24.8723   21.6282 H   0  0  0  0  0  0  0  0  0  0  0  0
   -5.7280  -24.6547   19.8987 H   0  0  0  0  0  0  0  0  0  0  0  0
   -5.4342  -22.2717   21.8063 H   0  0  0  0  0  0  0  0  0  0  0  0
   -6.3229  -20.3939   20.8201 H   0  0  0  0  0  0  0  0  0  0  0  0
   -6.8683  -18.0486   20.1702 H   0  0  0  0  0  0  0  0  0  0  0  0
   -5.3737  -16.1598   20.1975 H   0  0  0  0  0  0  0  0  0  0  0  0
   -2.5033  -16.0119   20.4104 H   0  0  0  0  0  0  0  0  0  0  0  0
   -0.6443  -17.5598   20.1083 H   0  0  0  0  0  0  0  0  0  0  0  0
   -1.4711  -19.3430   18.1485 H   0  0  0  0  0  0  0  0  0  0  0  0
   -4.0119  -20.4132   17.9767 H   0  0  0  0  0  0  0  0  0  0  0  0
   -8.4801  -21.9377   19.8468 H   0  0  0  0  0  0  0  0  0  0  0  0
  -10.5510  -22.4802   21.5697 H   0  0  0  0  0  0  0  0  0  0  0  0
   -7.0208  -23.8081   23.3498 H   0  0  0  0  0  0  0  0  0  0  0  0
  1  2  1  0
  2  3  1  0
  2  4  1  0
  4  5  1  0
  5  6  1  0
  6  7  2  0
  6  8  1  0
  8  9  1  0
  9 10  2  0
 10 11  1  0
 11 12  2  0
 12 13  1  0
 13 14  1  0
 14 15  2  0
 15 16  1  0
 16 17  2  0
  5 18  1  0
 18 19  1  0
 19 20  2  0
 20 21  1  0
 21 22  2  0
 17  9  1  0
 22 18  1  0
 16 12  1  0
  1 23  1  0
  1 24  1  0
  1 25  1  0
  2 26  1  0
  3 27  1  0
  3 28  1  0
  3 29  1  0
  4 30  1  0
  4 31  1  0
  5 32  1  0
  8 33  1  0
 10 34  1  0
 11 35  1  0
 13 36  1  0
 14 37  1  0
 15 38  1  0
 17 39  1  0
 19 40  1  0
 20 41  1  0
 22 42  1  0
M  END
>  <Energy>  (405) 
70.13765154795513

>  <compound_id>  (405) 
23987

>  <target_id>  (405) 
1

>  <reference_id>  (405) 
35

>  <inspiration_ids>  (405) 
[97, 35]

>  <energy_score>  (405) 
1.9181973329912125

>  <distance_score>  (405) 
19.924768083374776

>  <path>  (405) 
/opt/xchem-fragalysis-2/maxwin/BulkDock/SCRATCH/511015/C23987-P35/C23987-P35.minimised.mol

>  <scratch_subdir>  (405) 
/opt/xchem-fragalysis-2/maxwin/BulkDock/SCRATCH/511015/C23987-P35

>  <fragmenstein_runtime>  (405) 
29.937495470046997

>  <fragmenstein_outcome>  (405) 
too moved

>  <fragmenstein_mode>  (405) 
expansion

>  <fragmenstein_error>  (405) 


$$$$
C69368-P97
     RDKit          3D

 45 47  0  0  0  0  0  0  0  0999 V2000
    3.4972   -8.4152   16.4005 C   0  0  0  0  0  0  0  0  0  0  0  0
    4.3995   -9.4083   15.7701 C   0  0  0  0  0  0  0  0  0  0  0  0
    5.4788   -9.0387   14.9994 C   0  0  0  0  0  0  0  0  0  0  0  0
    6.1807  -10.1628   14.6815 N   0  0  0  0  0  0  0  0  0  0  0  0
    5.5671  -11.2693   15.2085 C   0  0  0  0  0  0  0  0  0  0  0  0
    5.9648  -12.6037   15.1840 C   0  0  0  0  0  0  0  0  0  0  0  0
    5.0636  -13.5736   15.6728 C   0  0  0  0  0  0  0  0  0  0  0  0
    3.7689  -13.2792   16.1413 C   0  0  0  0  0  0  0  0  0  0  0  0
    2.9573  -14.4448   16.4513 N   0  0  0  0  0  0  0  0  0  0  0  0
    1.5183  -14.5627   16.8344 C   0  0  0  0  0  0  0  0  0  0  0  0
    0.6970  -13.7138   17.0576 O   0  0  0  0  0  0  0  0  0  0  0  0
    1.0585  -16.1182   16.8211 C   0  0  0  0  0  0  0  0  0  0  0  0
    0.6769  -16.4472   15.3574 C   0  0  0  0  0  0  0  0  0  0  0  0
    0.6726  -17.9401   14.9698 C   0  0  0  0  0  0  0  0  0  0  0  0
    2.0566  -18.5790   15.0953 C   0  0  0  0  0  0  0  0  0  0  0  0
    0.1677  -18.0944   13.5312 C   0  0  0  0  0  0  0  0  0  0  0  0
   -0.0121  -16.6236   17.7689 N   0  0  0  0  0  0  0  0  0  0  0  0
   -0.0353  -17.8899   18.3452 C   0  0  0  0  0  0  0  0  0  0  0  0
   -1.1897  -17.9694   19.0908 C   0  0  0  0  0  0  0  0  0  0  0  0
   -1.9305  -16.8367   18.9167 N   0  0  0  0  0  0  0  0  0  0  0  0
   -1.2270  -16.0736   18.0985 C   0  0  0  0  0  0  0  0  0  0  0  0
    3.4477  -11.9013   16.2103 C   0  0  0  0  0  0  0  0  0  0  0  0
    4.3635  -10.8601   15.7827 C   0  0  0  0  0  0  0  0  0  0  0  0
    2.6638   -8.9099   16.9091 H   0  0  0  0  0  0  0  0  0  0  0  0
    3.0792   -7.7380   15.6486 H   0  0  0  0  0  0  0  0  0  0  0  0
    4.0399   -7.8196   17.1417 H   0  0  0  0  0  0  0  0  0  0  0  0
    5.8189   -8.0699   14.6746 H   0  0  0  0  0  0  0  0  0  0  0  0
    7.0476  -10.1654   14.1505 H   0  0  0  0  0  0  0  0  0  0  0  0
    6.9210  -12.9014   14.7641 H   0  0  0  0  0  0  0  0  0  0  0  0
    5.3907  -14.6114   15.6174 H   0  0  0  0  0  0  0  0  0  0  0  0
    3.3712  -15.3680   16.4229 H   0  0  0  0  0  0  0  0  0  0  0  0
    1.9438  -16.6887   17.1233 H   0  0  0  0  0  0  0  0  0  0  0  0
   -0.3176  -16.0256   15.1555 H   0  0  0  0  0  0  0  0  0  0  0  0
    1.3610  -15.9220   14.6770 H   0  0  0  0  0  0  0  0  0  0  0  0
   -0.0234  -18.4859   15.6156 H   0  0  0  0  0  0  0  0  0  0  0  0
    2.0403  -19.6130   14.7341 H   0  0  0  0  0  0  0  0  0  0  0  0
    2.8017  -18.0295   14.5101 H   0  0  0  0  0  0  0  0  0  0  0  0
    2.3943  -18.6077   16.1350 H   0  0  0  0  0  0  0  0  0  0  0  0
   -0.8395  -17.6777   13.4255 H   0  0  0  0  0  0  0  0  0  0  0  0
    0.1215  -19.1509   13.2461 H   0  0  0  0  0  0  0  0  0  0  0  0
    0.8245  -17.5803   12.8211 H   0  0  0  0  0  0  0  0  0  0  0  0
    0.7630  -18.6001   18.1877 H   0  0  0  0  0  0  0  0  0  0  0  0
   -1.5337  -18.7856   19.7117 H   0  0  0  0  0  0  0  0  0  0  0  0
   -1.5430  -15.1086   17.7219 H   0  0  0  0  0  0  0  0  0  0  0  0
    2.4707  -11.5864   16.5342 H   0  0  0  0  0  0  0  0  0  0  0  0
  1  2  1  0
  2  3  2  0
  3  4  1  0
  4  5  1  0
  5  6  2  0
  6  7  1  0
  7  8  2  0
  8  9  1  0
  9 10  1  0
 10 11  2  0
 10 12  1  0
 12 13  1  0
 13 14  1  0
 14 15  1  0
 14 16  1  0
 12 17  1  0
 17 18  1  0
 18 19  2  0
 19 20  1  0
 20 21  2  0
  8 22  1  0
 22 23  2  0
 23  2  1  0
 23  5  1  0
 21 17  1  0
  1 24  1  0
  1 25  1  0
  1 26  1  0
  3 27  1  0
  4 28  1  0
  6 29  1  0
  7 30  1  0
  9 31  1  0
 12 32  1  0
 13 33  1  0
 13 34  1  0
 14 35  1  0
 15 36  1  0
 15 37  1  0
 15 38  1  0
 16 39  1  0
 16 40  1  0
 16 41  1  0
 18 42  1  0
 19 43  1  0
 21 44  1  0
 22 45  1  0
M  END
>  <Energy>  (406) 
49.443389559116085

>  <compound_id>  (406) 
69368

>  <target_id>  (406) 
1

>  <reference_id>  (406) 
97

>  <inspiration_ids>  (406) 
[97, 35]

>  <energy_score>  (406) 
-22.048441978380254

>  <distance_score>  (406) 
15.544318473924694

>  <path>  (406) 
/opt/xchem-fragalysis-2/maxwin/BulkDock/SCRATCH/511015/C69368-P97/C69368-P97.minimised.mol

>  <scratch_subdir>  (406) 
/opt/xchem-fragalysis-2/maxwin/BulkDock/SCRATCH/511015/C69368-P97

>  <fragmenstein_runtime>  (406) 
20.916696310043335

>  <fragmenstein_outcome>  (406) 
too moved

>  <fragmenstein_mode>  (406) 
expansion

>  <fragmenstein_error>  (406) 


$$$$
C69368-P35
     RDKit          3D

 45 47  0  0  0  0  0  0  0  0999 V2000
    4.3627  -14.2824   25.1873 C   0  0  0  0  0  0  0  0  0  0  0  0
    3.2987  -13.4977   24.2030 C   0  0  0  0  0  0  0  0  0  0  0  0
    3.1918  -12.4649   23.3682 C   0  0  0  0  0  0  0  0  0  0  0  0
    2.0740  -11.8967   24.0005 N   0  0  0  0  0  0  0  0  0  0  0  0
    1.6451  -12.6743   25.3893 C   0  0  0  0  0  0  0  0  0  0  0  0
    0.4472  -12.9760   26.1359 C   0  0  0  0  0  0  0  0  0  0  0  0
   -1.1987  -13.5418   25.3471 C   0  0  0  0  0  0  0  0  0  0  0  0
   -1.1771  -14.6545   24.5133 C   0  0  0  0  0  0  0  0  0  0  0  0
   -2.4487  -15.8368   25.1306 N   0  0  0  0  0  0  0  0  0  0  0  0
   -2.2684  -17.3521   26.0599 C   0  0  0  0  0  0  0  0  0  0  0  0
   -1.2174  -17.9127   26.3672 O   0  0  0  0  0  0  0  0  0  0  0  0
   -3.5431  -18.1347   26.7641 C   0  0  0  0  0  0  0  0  0  0  0  0
   -3.6386  -19.6074   26.1880 C   0  0  0  0  0  0  0  0  0  0  0  0
   -3.8048  -21.0218   26.8060 C   0  0  0  0  0  0  0  0  0  0  0  0
   -3.7568  -22.0497   25.6441 C   0  0  0  0  0  0  0  0  0  0  0  0
   -2.7627  -21.5115   27.8101 C   0  0  0  0  0  0  0  0  0  0  0  0
   -3.2840  -18.1238   28.2322 N   0  0  0  0  0  0  0  0  0  0  0  0
   -2.2465  -18.6983   28.9220 C   0  0  0  0  0  0  0  0  0  0  0  0
   -2.5441  -18.5444   30.2550 C   0  0  0  0  0  0  0  0  0  0  0  0
   -3.6811  -17.8078   30.4020 N   0  0  0  0  0  0  0  0  0  0  0  0
   -4.0590  -17.4989   29.1805 C   0  0  0  0  0  0  0  0  0  0  0  0
    0.4080  -14.2176   24.0192 C   0  0  0  0  0  0  0  0  0  0  0  0
    1.8631  -13.2137   24.2177 C   0  0  0  0  0  0  0  0  0  0  0  0
    4.7616  -15.1741   24.6871 H   0  0  0  0  0  0  0  0  0  0  0  0
    3.9800  -14.5742   26.1605 H   0  0  0  0  0  0  0  0  0  0  0  0
    5.2040  -13.6971   25.6045 H   0  0  0  0  0  0  0  0  0  0  0  0
    3.7744  -11.8475   22.7322 H   0  0  0  0  0  0  0  0  0  0  0  0
    1.3719  -11.3942   23.4480 H   0  0  0  0  0  0  0  0  0  0  0  0
    0.8357  -13.6447   26.8925 H   0  0  0  0  0  0  0  0  0  0  0  0
   -2.1772  -13.2924   25.7572 H   0  0  0  0  0  0  0  0  0  0  0  0
   -3.4085  -15.6639   24.9630 H   0  0  0  0  0  0  0  0  0  0  0  0
   -4.4871  -17.6101   26.6946 H   0  0  0  0  0  0  0  0  0  0  0  0
   -4.4219  -19.5515   25.4277 H   0  0  0  0  0  0  0  0  0  0  0  0
   -2.7295  -19.7464   25.6351 H   0  0  0  0  0  0  0  0  0  0  0  0
   -4.7963  -21.1144   27.2382 H   0  0  0  0  0  0  0  0  0  0  0  0
   -4.1076  -23.0306   25.9827 H   0  0  0  0  0  0  0  0  0  0  0  0
   -4.3788  -21.7470   24.7992 H   0  0  0  0  0  0  0  0  0  0  0  0
   -2.7356  -22.1701   25.2647 H   0  0  0  0  0  0  0  0  0  0  0  0
   -1.7453  -21.2841   27.4813 H   0  0  0  0  0  0  0  0  0  0  0  0
   -2.8235  -22.6001   27.9339 H   0  0  0  0  0  0  0  0  0  0  0  0
   -2.9195  -21.1078   28.8080 H   0  0  0  0  0  0  0  0  0  0  0  0
   -1.4085  -19.1776   28.4386 H   0  0  0  0  0  0  0  0  0  0  0  0
   -1.9850  -18.8995   31.1108 H   0  0  0  0  0  0  0  0  0  0  0  0
   -4.9259  -16.8968   28.9387 H   0  0  0  0  0  0  0  0  0  0  0  0
    1.0672  -14.6438   23.2633 H   0  0  0  0  0  0  0  0  0  0  0  0
  1  2  1  0
  2  3  2  0
  3  4  1  0
  4  5  1  0
  5  6  2  0
  6  7  1  0
  7  8  2  0
  8  9  1  0
  9 10  1  0
 10 11  2  0
 10 12  1  0
 12 13  1  0
 13 14  1  0
 14 15  1  0
 14 16  1  0
 12 17  1  0
 17 18  1  0
 18 19  2  0
 19 20  1  0
 20 21  2  0
  8 22  1  0
 22 23  2  0
 23  2  1  0
 23  5  1  0
 21 17  1  0
  1 24  1  0
  1 25  1  0
  1 26  1  0
  3 27  1  0
  4 28  1  0
  6 29  1  0
  7 30  1  0
  9 31  1  0
 12 32  1  0
 13 33  1  0
 13 34  1  0
 14 35  1  0
 15 36  1  0
 15 37  1  0
 15 38  1  0
 16 39  1  0
 16 40  1  0
 16 41  1  0
 18 42  1  0
 19 43  1  0
 21 44  1  0
 22 45  1  0
M  END
>  <Energy>  (407) 
663.28551976613892

>  <compound_id>  (407) 
69368

>  <target_id>  (407) 
1

>  <reference_id>  (407) 
35

>  <inspiration_ids>  (407) 
[97, 35]

>  <energy_score>  (407) 
591.7936882286388

>  <distance_score>  (407) 
16.86376067789545

>  <path>  (407) 
/opt/xchem-fragalysis-2/maxwin/BulkDock/SCRATCH/511015/C69368-P35/C69368-P35.minimised.mol

>  <scratch_subdir>  (407) 
/opt/xchem-fragalysis-2/maxwin/BulkDock/SCRATCH/511015/C69368-P35

>  <fragmenstein_runtime>  (407) 
24.31658697128296

>  <fragmenstein_outcome>  (407) 
too moved

>  <fragmenstein_mode>  (407) 
expansion

>  <fragmenstein_error>  (407) 


$$$$
C69369-P97
     RDKit          3D

 48 50  0  0  0  0  0  0  0  0999 V2000
   10.9199   -5.1868   17.8352 C   0  0  0  0  0  0  0  0  0  0  0  0
    9.9429   -5.8766   19.6044 C   0  0  0  0  0  0  0  0  0  0  0  0
    9.3751   -7.8454   20.1826 N   0  0  0  0  0  0  0  0  0  0  0  0
   10.0041   -8.9546   20.8488 C   0  0  0  0  0  0  0  0  0  0  0  0
    9.2302  -10.1690   20.8242 C   0  0  0  0  0  0  0  0  0  0  0  0
    7.7751   -9.9615   20.9451 C   0  0  0  0  0  0  0  0  0  0  0  0
    6.3713  -10.8688   21.5213 C   0  0  0  0  0  0  0  0  0  0  0  0
    4.8642  -10.7405   22.3692 C   0  0  0  0  0  0  0  0  0  0  0  0
    3.5085  -12.1652   22.5531 N   0  0  0  0  0  0  0  0  0  0  0  0
    2.1406  -12.4654   23.8214 C   0  0  0  0  0  0  0  0  0  0  0  0
    2.0108  -11.6367   24.5897 O   0  0  0  0  0  0  0  0  0  0  0  0
    0.6642  -13.9167   24.1458 C   0  0  0  0  0  0  0  0  0  0  0  0
   -1.1948  -14.6503   23.4999 C   0  0  0  0  0  0  0  0  0  0  0  0
   -3.2250  -15.2439   23.3363 C   0  0  0  0  0  0  0  0  0  0  0  0
   -5.1387  -14.9065   23.3566 C   0  0  0  0  0  0  0  0  0  0  0  0
   -4.0360  -16.4103   21.8101 C   0  0  0  0  0  0  0  0  0  0  0  0
    0.5585  -13.3015   26.0321 N   0  0  0  0  0  0  0  0  0  0  0  0
    1.2596  -13.6146   27.2212 C   0  0  0  0  0  0  0  0  0  0  0  0
    0.4524  -13.4548   28.3286 C   0  0  0  0  0  0  0  0  0  0  0  0
   -0.7993  -13.0778   27.9921 N   0  0  0  0  0  0  0  0  0  0  0  0
   -0.7688  -12.9527   26.6871 C   0  0  0  0  0  0  0  0  0  0  0  0
    5.1569   -9.2421   22.4037 C   0  0  0  0  0  0  0  0  0  0  0  0
    6.4235   -8.2318   21.6701 C   0  0  0  0  0  0  0  0  0  0  0  0
    7.8019   -8.5364   20.8451 C   0  0  0  0  0  0  0  0  0  0  0  0
   11.9700   -4.8359   18.1523 H   0  0  0  0  0  0  0  0  0  0  0  0
   11.1741   -5.8542   16.9449 H   0  0  0  0  0  0  0  0  0  0  0  0
   10.6793   -4.3524   17.1564 H   0  0  0  0  0  0  0  0  0  0  0  0
    9.4235   -6.2123   18.8722 H   0  0  0  0  0  0  0  0  0  0  0  0
   10.8945   -5.7769   20.1870 H   0  0  0  0  0  0  0  0  0  0  0  0
   10.9363   -8.7976   21.3627 H   0  0  0  0  0  0  0  0  0  0  0  0
    9.6733  -11.1152   21.1142 H   0  0  0  0  0  0  0  0  0  0  0  0
    6.6070  -11.8875   21.1838 H   0  0  0  0  0  0  0  0  0  0  0  0
    3.4824  -12.9311   21.8581 H   0  0  0  0  0  0  0  0  0  0  0  0
    0.6241  -14.7276   24.6650 H   0  0  0  0  0  0  0  0  0  0  0  0
   -0.8674  -14.8815   22.4803 H   0  0  0  0  0  0  0  0  0  0  0  0
   -1.3108  -15.1988   24.4004 H   0  0  0  0  0  0  0  0  0  0  0  0
   -3.1549  -15.6627   24.3699 H   0  0  0  0  0  0  0  0  0  0  0  0
   -5.4806  -13.8566   23.3836 H   0  0  0  0  0  0  0  0  0  0  0  0
   -5.7010  -15.6215   23.9999 H   0  0  0  0  0  0  0  0  0  0  0  0
   -5.7152  -15.2472   22.4743 H   0  0  0  0  0  0  0  0  0  0  0  0
   -4.9718  -16.9517   22.0464 H   0  0  0  0  0  0  0  0  0  0  0  0
   -4.4430  -15.8992   20.9058 H   0  0  0  0  0  0  0  0  0  0  0  0
   -3.4044  -17.1008   21.2124 H   0  0  0  0  0  0  0  0  0  0  0  0
    2.2954  -13.8895   27.2343 H   0  0  0  0  0  0  0  0  0  0  0  0
    0.7361  -13.6070   29.3614 H   0  0  0  0  0  0  0  0  0  0  0  0
   -1.6475  -12.8080   26.0793 H   0  0  0  0  0  0  0  0  0  0  0  0
    4.3292   -8.5840   22.6798 H   0  0  0  0  0  0  0  0  0  0  0  0
    6.2179   -7.1634   21.8156 H   0  0  0  0  0  0  0  0  0  0  0  0
  1  2  1  0
  2  3  1  0
  3  4  1  0
  4  5  2  0
  5  6  1  0
  6  7  2  0
  7  8  1  0
  8  9  1  0
  9 10  1  0
 10 11  2  0
 10 12  1  0
 12 13  1  0
 13 14  1  0
 14 15  1  0
 14 16  1  0
 12 17  1  0
 17 18  1  0
 18 19  2  0
 19 20  1  0
 20 21  2  0
  8 22  2  0
 22 23  1  0
 23 24  2  0
 24  3  1  0
 24  6  1  0
 21 17  1  0
  1 25  1  0
  1 26  1  0
  1 27  1  0
  2 28  1  0
  2 29  1  0
  4 30  1  0
  5 31  1  0
  7 32  1  0
  9 33  1  0
 12 34  1  0
 13 35  1  0
 13 36  1  0
 14 37  1  0
 15 38  1  0
 15 39  1  0
 15 40  1  0
 16 41  1  0
 16 42  1  0
 16 43  1  0
 18 44  1  0
 19 45  1  0
 21 46  1  0
 22 47  1  0
 23 48  1  0
M  END
>  <Energy>  (408) 
1532.3215424795399

>  <compound_id>  (408) 
69369

>  <target_id>  (408) 
1

>  <reference_id>  (408) 
97

>  <inspiration_ids>  (408) 
[97, 35]

>  <energy_score>  (408) 
1472.7197678360503

>  <distance_score>  (408) 
14.29696727111902

>  <path>  (408) 
/opt/xchem-fragalysis-2/maxwin/BulkDock/SCRATCH/511015/C69369-P97/C69369-P97.minimised.mol

>  <scratch_subdir>  (408) 
/opt/xchem-fragalysis-2/maxwin/BulkDock/SCRATCH/511015/C69369-P97

>  <fragmenstein_runtime>  (408) 
18.053231477737427

>  <fragmenstein_outcome>  (408) 
too moved

>  <fragmenstein_mode>  (408) 
expansion

>  <fragmenstein_error>  (408) 


$$$$
C69369-P35
     RDKit          3D

 48 50  0  0  0  0  0  0  0  0999 V2000
    0.0692   -5.7713   16.7346 C   0  0  0  0  0  0  0  0  0  0  0  0
    0.1736   -5.1025   18.0940 C   0  0  0  0  0  0  0  0  0  0  0  0
    0.9995   -5.8609   19.0178 N   0  0  0  0  0  0  0  0  0  0  0  0
    2.3491   -5.6498   19.2061 C   0  0  0  0  0  0  0  0  0  0  0  0
    2.7809   -6.5653   20.1402 C   0  0  0  0  0  0  0  0  0  0  0  0
    1.6492   -7.3574   20.5214 C   0  0  0  0  0  0  0  0  0  0  0  0
    1.4367   -8.4881   21.3687 C   0  0  0  0  0  0  0  0  0  0  0  0
    0.1961   -9.2542   21.5388 C   0  0  0  0  0  0  0  0  0  0  0  0
    0.1193  -10.6605   22.3034 N   0  0  0  0  0  0  0  0  0  0  0  0
   -0.8806  -11.8814   22.1858 C   0  0  0  0  0  0  0  0  0  0  0  0
   -1.7760  -11.9354   21.3373 O   0  0  0  0  0  0  0  0  0  0  0  0
   -0.6863  -13.6888   23.5682 C   0  0  0  0  0  0  0  0  0  0  0  0
   -1.9467  -15.2277   24.3544 C   0  0  0  0  0  0  0  0  0  0  0  0
   -2.6015  -16.5936   25.7589 C   0  0  0  0  0  0  0  0  0  0  0  0
   -2.2760  -16.6123   27.6336 C   0  0  0  0  0  0  0  0  0  0  0  0
   -2.5044  -18.1590   26.0569 C   0  0  0  0  0  0  0  0  0  0  0  0
   -1.7323  -13.4853   25.2237 N   0  0  0  0  0  0  0  0  0  0  0  0
   -2.2723  -14.2788   26.2295 C   0  0  0  0  0  0  0  0  0  0  0  0
   -3.1473  -13.7026   27.0805 C   0  0  0  0  0  0  0  0  0  0  0  0
   -3.5097  -12.5329   26.4888 N   0  0  0  0  0  0  0  0  0  0  0  0
   -2.6390  -12.4780   25.5300 C   0  0  0  0  0  0  0  0  0  0  0  0
   -0.8708   -8.6808   20.8590 C   0  0  0  0  0  0  0  0  0  0  0  0
   -0.7142   -7.5208   20.0074 C   0  0  0  0  0  0  0  0  0  0  0  0
    0.5479   -6.8953   19.8219 C   0  0  0  0  0  0  0  0  0  0  0  0
    1.0569   -5.8887   16.2760 H   0  0  0  0  0  0  0  0  0  0  0  0
   -0.5502   -5.1698   16.0623 H   0  0  0  0  0  0  0  0  0  0  0  0
   -0.3813   -6.7661   16.8149 H   0  0  0  0  0  0  0  0  0  0  0  0
    0.6156   -4.1047   17.9953 H   0  0  0  0  0  0  0  0  0  0  0  0
   -0.8158   -4.9790   18.5468 H   0  0  0  0  0  0  0  0  0  0  0  0
    2.8788   -4.8818   18.6591 H   0  0  0  0  0  0  0  0  0  0  0  0
    3.7936   -6.6815   20.4993 H   0  0  0  0  0  0  0  0  0  0  0  0
    2.3701   -8.8240   21.7952 H   0  0  0  0  0  0  0  0  0  0  0  0
    0.7981  -10.8877   22.9979 H   0  0  0  0  0  0  0  0  0  0  0  0
   -0.8120  -14.4691   22.7847 H   0  0  0  0  0  0  0  0  0  0  0  0
   -2.8172  -15.2886   23.7020 H   0  0  0  0  0  0  0  0  0  0  0  0
   -1.1321  -15.7338   24.2729 H   0  0  0  0  0  0  0  0  0  0  0  0
   -3.5933  -16.2923   25.6126 H   0  0  0  0  0  0  0  0  0  0  0  0
   -1.3835  -17.2066   27.8762 H   0  0  0  0  0  0  0  0  0  0  0  0
   -2.1477  -15.7041   28.2291 H   0  0  0  0  0  0  0  0  0  0  0  0
   -3.1485  -17.0636   28.1359 H   0  0  0  0  0  0  0  0  0  0  0  0
   -3.1444  -18.4069   26.9198 H   0  0  0  0  0  0  0  0  0  0  0  0
   -1.4947  -18.3858   26.3783 H   0  0  0  0  0  0  0  0  0  0  0  0
   -2.9444  -18.9942   25.5479 H   0  0  0  0  0  0  0  0  0  0  0  0
   -1.7194  -14.9458   26.7723 H   0  0  0  0  0  0  0  0  0  0  0  0
   -3.2303  -13.8704   28.1805 H   0  0  0  0  0  0  0  0  0  0  0  0
   -2.2572  -11.5291   25.4562 H   0  0  0  0  0  0  0  0  0  0  0  0
   -1.8405   -9.1725   20.8827 H   0  0  0  0  0  0  0  0  0  0  0  0
   -1.5829   -7.1765   19.4521 H   0  0  0  0  0  0  0  0  0  0  0  0
  1  2  1  0
  2  3  1  0
  3  4  1  0
  4  5  2  0
  5  6  1  0
  6  7  2  0
  7  8  1  0
  8  9  1  0
  9 10  1  0
 10 11  2  0
 10 12  1  0
 12 13  1  0
 13 14  1  0
 14 15  1  0
 14 16  1  0
 12 17  1  0
 17 18  1  0
 18 19  2  0
 19 20  1  0
 20 21  2  0
  8 22  2  0
 22 23  1  0
 23 24  2  0
 24  3  1  0
 24  6  1  0
 21 17  1  0
  1 25  1  0
  1 26  1  0
  1 27  1  0
  2 28  1  0
  2 29  1  0
  4 30  1  0
  5 31  1  0
  7 32  1  0
  9 33  1  0
 12 34  1  0
 13 35  1  0
 13 36  1  0
 14 37  1  0
 15 38  1  0
 15 39  1  0
 15 40  1  0
 16 41  1  0
 16 42  1  0
 16 43  1  0
 18 44  1  0
 19 45  1  0
 21 46  1  0
 22 47  1  0
 23 48  1  0
M  END
>  <Energy>  (409) 
855.73664954628566

>  <compound_id>  (409) 
69369

>  <target_id>  (409) 
1

>  <reference_id>  (409) 
35

>  <inspiration_ids>  (409) 
[97, 35]

>  <energy_score>  (409) 
796.1348749027811

>  <distance_score>  (409) 
15.260287939120412

>  <path>  (409) 
/opt/xchem-fragalysis-2/maxwin/BulkDock/SCRATCH/511015/C69369-P35/C69369-P35.minimised.mol

>  <scratch_subdir>  (409) 
/opt/xchem-fragalysis-2/maxwin/BulkDock/SCRATCH/511015/C69369-P35

>  <fragmenstein_runtime>  (409) 
21.47796607017517

>  <fragmenstein_outcome>  (409) 
too moved

>  <fragmenstein_mode>  (409) 
expansion

>  <fragmenstein_error>  (409) 


$$$$
C69371-P97
     RDKit          3D

 42 44  0  0  0  0  0  0  0  0999 V2000
    5.4231   -2.6936   14.8121 N   0  0  0  0  0  0  0  0  0  0  0  0
    4.6917   -3.3344   15.4529 C   0  0  0  0  0  0  0  0  0  0  0  0
    4.1099   -4.3915   16.2978 C   0  0  0  0  0  0  0  0  0  0  0  0
    4.5440   -6.1348   16.6612 N   0  0  0  0  0  0  0  0  0  0  0  0
    3.9698   -7.1126   18.0124 C   0  0  0  0  0  0  0  0  0  0  0  0
    2.2420   -8.1690   18.3324 C   0  0  0  0  0  0  0  0  0  0  0  0
    1.6547   -8.3163   17.2640 O   0  0  0  0  0  0  0  0  0  0  0  0
    1.1505   -8.8929   19.7553 O   0  0  0  0  0  0  0  0  0  0  0  0
   -0.3632   -9.8879   20.7619 C   0  0  0  0  0  0  0  0  0  0  0  0
   -1.6698  -11.6060   20.7018 C   0  0  0  0  0  0  0  0  0  0  0  0
   -2.3482  -13.6224   21.1206 C   0  0  0  0  0  0  0  0  0  0  0  0
   -2.8447  -14.7794   23.0312 C   0  0  0  0  0  0  0  0  0  0  0  0
   -3.8119  -14.8388   24.4330 N   0  0  0  0  0  0  0  0  0  0  0  0
   -3.3489  -15.5643   25.5384 C   0  0  0  0  0  0  0  0  0  0  0  0
   -4.4635  -16.0200   26.2034 C   0  0  0  0  0  0  0  0  0  0  0  0
   -5.5972  -15.6078   25.5642 N   0  0  0  0  0  0  0  0  0  0  0  0
   -5.1902  -14.9114   24.5208 C   0  0  0  0  0  0  0  0  0  0  0  0
    5.1744   -5.8750   18.2634 C   0  0  0  0  0  0  0  0  0  0  0  0
    6.4806   -5.6208   17.1872 C   0  0  0  0  0  0  0  0  0  0  0  0
    7.6820   -4.6201   16.1396 C   0  0  0  0  0  0  0  0  0  0  0  0
    8.6012   -4.5265   15.2230 C   0  0  0  0  0  0  0  0  0  0  0  0
    7.8776   -6.1855   15.2920 C   0  0  0  0  0  0  0  0  0  0  0  0
    6.6280   -6.9280   15.5029 C   0  0  0  0  0  0  0  0  0  0  0  0
    5.8722   -6.5033   16.4885 C   0  0  0  0  0  0  0  0  0  0  0  0
    3.9097   -3.9625   17.2851 H   0  0  0  0  0  0  0  0  0  0  0  0
    3.3608   -4.7063   15.5187 H   0  0  0  0  0  0  0  0  0  0  0  0
    0.0431   -9.8252   21.7595 H   0  0  0  0  0  0  0  0  0  0  0  0
   -1.0803   -9.0660   20.6159 H   0  0  0  0  0  0  0  0  0  0  0  0
   -1.8212  -11.6499   19.6101 H   0  0  0  0  0  0  0  0  0  0  0  0
   -2.5615  -11.0699   21.0574 H   0  0  0  0  0  0  0  0  0  0  0  0
   -1.3498  -13.6885   21.0244 H   0  0  0  0  0  0  0  0  0  0  0  0
   -2.1990  -14.4826   20.4211 H   0  0  0  0  0  0  0  0  0  0  0  0
   -3.6326  -15.7312   22.9325 H   0  0  0  0  0  0  0  0  0  0  0  0
   -1.7531  -14.9489   23.6051 H   0  0  0  0  0  0  0  0  0  0  0  0
   -2.2935  -15.7104   25.7227 H   0  0  0  0  0  0  0  0  0  0  0  0
   -4.5065  -16.6246   27.1001 H   0  0  0  0  0  0  0  0  0  0  0  0
   -5.8480  -14.4604   23.7923 H   0  0  0  0  0  0  0  0  0  0  0  0
    4.9243   -5.0434   18.9233 H   0  0  0  0  0  0  0  0  0  0  0  0
    7.4730   -3.4552   15.7940 H   0  0  0  0  0  0  0  0  0  0  0  0
    9.5309   -4.0204   15.0341 H   0  0  0  0  0  0  0  0  0  0  0  0
    8.5020   -6.8858   14.7974 H   0  0  0  0  0  0  0  0  0  0  0  0
    6.3971   -7.6407   14.6971 H   0  0  0  0  0  0  0  0  0  0  0  0
  1  2  3  0
  2  3  1  0
  3  4  1  0
  4  5  1  0
  5  6  1  0
  6  7  2  0
  6  8  1  0
  8  9  1  0
  9 10  1  0
 10 11  1  0
 11 12  1  0
 12 13  1  0
 13 14  1  0
 14 15  2  0
 15 16  1  0
 16 17  2  0
  5 18  2  0
 18 19  1  0
 19 20  2  0
 20 21  1  0
 21 22  2  0
 22 23  1  0
 23 24  2  0
 24  4  1  0
 17 13  1  0
 24 19  1  0
  3 25  1  0
  3 26  1  0
  9 27  1  0
  9 28  1  0
 10 29  1  0
 10 30  1  0
 11 31  1  0
 11 32  1  0
 12 33  1  0
 12 34  1  0
 14 35  1  0
 15 36  1  0
 17 37  1  0
 18 38  1  0
 20 39  1  0
 21 40  1  0
 22 41  1  0
 23 42  1  0
M  END
>  <Energy>  (410) 
1602.5247228541916

>  <compound_id>  (410) 
69371

>  <target_id>  (410) 
1

>  <reference_id>  (410) 
97

>  <inspiration_ids>  (410) 
[97, 35]

>  <energy_score>  (410) 
1565.5567406628893

>  <distance_score>  (410) 
11.257529156422722

>  <path>  (410) 
/opt/xchem-fragalysis-2/maxwin/BulkDock/SCRATCH/511015/C69371-P97/C69371-P97.minimised.mol

>  <scratch_subdir>  (410) 
/opt/xchem-fragalysis-2/maxwin/BulkDock/SCRATCH/511015/C69371-P97

>  <fragmenstein_runtime>  (410) 
12.85604476928711

>  <fragmenstein_outcome>  (410) 
too moved

>  <fragmenstein_mode>  (410) 
expansion

>  <fragmenstein_error>  (410) 


$$$$
C69371-P35
     RDKit          3D

 42 44  0  0  0  0  0  0  0  0999 V2000
    0.8202   -4.4280   14.2370 N   0  0  0  0  0  0  0  0  0  0  0  0
    1.6614   -5.0781   14.7081 C   0  0  0  0  0  0  0  0  0  0  0  0
    2.8392   -5.8357   15.2073 C   0  0  0  0  0  0  0  0  0  0  0  0
    3.2532   -7.5405   15.7876 N   0  0  0  0  0  0  0  0  0  0  0  0
    2.8804   -8.9682   16.9730 C   0  0  0  0  0  0  0  0  0  0  0  0
    2.9536  -10.9579   16.8094 C   0  0  0  0  0  0  0  0  0  0  0  0
    3.9549  -11.4575   17.2310 O   0  0  0  0  0  0  0  0  0  0  0  0
    1.7975  -12.3213   16.1755 O   0  0  0  0  0  0  0  0  0  0  0  0
    0.7926  -13.6880   17.1028 C   0  0  0  0  0  0  0  0  0  0  0  0
   -1.1829  -13.7967   17.4041 C   0  0  0  0  0  0  0  0  0  0  0  0
   -2.5142  -14.7445   16.5436 C   0  0  0  0  0  0  0  0  0  0  0  0
   -3.9562  -15.9412   16.7453 C   0  0  0  0  0  0  0  0  0  0  0  0
   -4.2900  -17.0798   17.6786 N   0  0  0  0  0  0  0  0  0  0  0  0
   -5.4524  -17.8368   17.5674 C   0  0  0  0  0  0  0  0  0  0  0  0
   -5.4647  -18.7248   18.6219 C   0  0  0  0  0  0  0  0  0  0  0  0
   -4.3610  -18.5513   19.4006 N   0  0  0  0  0  0  0  0  0  0  0  0
   -3.6780  -17.5846   18.8187 C   0  0  0  0  0  0  0  0  0  0  0  0
    2.9163   -8.1494   18.0376 C   0  0  0  0  0  0  0  0  0  0  0  0
    4.4147   -7.0392   17.9772 C   0  0  0  0  0  0  0  0  0  0  0  0
    4.9899   -5.9317   18.5576 C   0  0  0  0  0  0  0  0  0  0  0  0
    6.2937   -5.8347   18.3947 C   0  0  0  0  0  0  0  0  0  0  0  0
    6.6407   -6.1288   17.1663 C   0  0  0  0  0  0  0  0  0  0  0  0
    5.7829   -6.3661   16.2490 C   0  0  0  0  0  0  0  0  0  0  0  0
    4.5331   -6.6369   16.6739 C   0  0  0  0  0  0  0  0  0  0  0  0
    3.5256   -5.1228   15.6439 H   0  0  0  0  0  0  0  0  0  0  0  0
    3.4529   -5.9276   14.3678 H   0  0  0  0  0  0  0  0  0  0  0  0
    1.1341  -14.5062   16.5081 H   0  0  0  0  0  0  0  0  0  0  0  0
    1.3602  -13.8500   18.0144 H   0  0  0  0  0  0  0  0  0  0  0  0
   -1.3323  -14.4079   18.2958 H   0  0  0  0  0  0  0  0  0  0  0  0
   -1.5622  -12.8117   17.7010 H   0  0  0  0  0  0  0  0  0  0  0  0
   -3.1965  -13.9128   16.5153 H   0  0  0  0  0  0  0  0  0  0  0  0
   -2.2065  -14.9371   15.5248 H   0  0  0  0  0  0  0  0  0  0  0  0
   -4.0313  -16.3985   15.7443 H   0  0  0  0  0  0  0  0  0  0  0  0
   -4.8466  -15.2920   16.7806 H   0  0  0  0  0  0  0  0  0  0  0  0
   -6.1484  -17.6751   16.7565 H   0  0  0  0  0  0  0  0  0  0  0  0
   -6.2122  -19.4722   18.8533 H   0  0  0  0  0  0  0  0  0  0  0  0
   -2.7587  -17.1840   19.2281 H   0  0  0  0  0  0  0  0  0  0  0  0
    2.2438   -8.3762   18.8434 H   0  0  0  0  0  0  0  0  0  0  0  0
    4.5257   -5.1776   19.2103 H   0  0  0  0  0  0  0  0  0  0  0  0
    6.7292   -5.1470   19.0942 H   0  0  0  0  0  0  0  0  0  0  0  0
    7.3874   -5.8096   16.4977 H   0  0  0  0  0  0  0  0  0  0  0  0
    6.2260   -6.6700   15.3205 H   0  0  0  0  0  0  0  0  0  0  0  0
  1  2  3  0
  2  3  1  0
  3  4  1  0
  4  5  1  0
  5  6  1  0
  6  7  2  0
  6  8  1  0
  8  9  1  0
  9 10  1  0
 10 11  1  0
 11 12  1  0
 12 13  1  0
 13 14  1  0
 14 15  2  0
 15 16  1  0
 16 17  2  0
  5 18  2  0
 18 19  1  0
 19 20  2  0
 20 21  1  0
 21 22  2  0
 22 23  1  0
 23 24  2  0
 24  4  1  0
 17 13  1  0
 24 19  1  0
  3 25  1  0
  3 26  1  0
  9 27  1  0
  9 28  1  0
 10 29  1  0
 10 30  1  0
 11 31  1  0
 11 32  1  0
 12 33  1  0
 12 34  1  0
 14 35  1  0
 15 36  1  0
 17 37  1  0
 18 38  1  0
 20 39  1  0
 21 40  1  0
 22 41  1  0
 23 42  1  0
M  END
>  <Energy>  (411) 
893.26617317043667

>  <compound_id>  (411) 
69371

>  <target_id>  (411) 
1

>  <reference_id>  (411) 
35

>  <inspiration_ids>  (411) 
[97, 35]

>  <energy_score>  (411) 
856.2981909791256

>  <distance_score>  (411) 
13.478563053505804

>  <path>  (411) 
/opt/xchem-fragalysis-2/maxwin/BulkDock/SCRATCH/511015/C69371-P35/C69371-P35.minimised.mol

>  <scratch_subdir>  (411) 
/opt/xchem-fragalysis-2/maxwin/BulkDock/SCRATCH/511015/C69371-P35

>  <fragmenstein_runtime>  (411) 
23.78660535812378

>  <fragmenstein_outcome>  (411) 
too moved

>  <fragmenstein_mode>  (411) 
expansion

>  <fragmenstein_error>  (411) 


$$$$
C69372-P97
     RDKit          3D

 34 36  0  0  0  0  0  0  0  0999 V2000
    7.5053  -15.0185   27.6829 O   0  0  0  0  0  0  0  0  0  0  0  0
    6.5828  -14.2668   27.5495 C   0  0  0  0  0  0  0  0  0  0  0  0
    5.1440  -14.4776   27.7545 N   0  0  0  0  0  0  0  0  0  0  0  0
    4.3592  -15.7412   28.1017 C   0  0  0  0  0  0  0  0  0  0  0  0
    2.9676  -15.7132   28.8870 C   0  0  0  0  0  0  0  0  0  0  0  0
    2.1122  -16.9132   28.9812 N   0  0  0  0  0  0  0  0  0  0  0  0
    2.1444  -18.0808   28.2632 C   0  0  0  0  0  0  0  0  0  0  0  0
    1.0823  -18.8404   28.7154 C   0  0  0  0  0  0  0  0  0  0  0  0
    0.3915  -18.1744   29.6903 N   0  0  0  0  0  0  0  0  0  0  0  0
    1.0219  -17.0267   29.8254 C   0  0  0  0  0  0  0  0  0  0  0  0
    7.0284  -12.9204   26.9734 C   0  0  0  0  0  0  0  0  0  0  0  0
    6.6563  -11.5816   27.0921 C   0  0  0  0  0  0  0  0  0  0  0  0
    7.5639  -10.7273   26.3501 C   0  0  0  0  0  0  0  0  0  0  0  0
    7.6876   -9.3306   26.1441 C   0  0  0  0  0  0  0  0  0  0  0  0
    8.7694   -8.8185   25.4138 C   0  0  0  0  0  0  0  0  0  0  0  0
    9.7072   -9.6833   24.8702 C   0  0  0  0  0  0  0  0  0  0  0  0
   10.7211   -9.1354   24.1361 O   0  0  0  0  0  0  0  0  0  0  0  0
    9.6039  -11.0698   25.0275 C   0  0  0  0  0  0  0  0  0  0  0  0
    8.5199  -11.5580   25.7852 C   0  0  0  0  0  0  0  0  0  0  0  0
    8.1880  -12.8444   26.1678 N   0  0  0  0  0  0  0  0  0  0  0  0
    4.6420  -13.6436   27.4657 H   0  0  0  0  0  0  0  0  0  0  0  0
    4.2182  -16.2413   27.1392 H   0  0  0  0  0  0  0  0  0  0  0  0
    5.0551  -16.3767   28.6626 H   0  0  0  0  0  0  0  0  0  0  0  0
    2.3339  -14.9185   28.4783 H   0  0  0  0  0  0  0  0  0  0  0  0
    3.1893  -15.4297   29.9240 H   0  0  0  0  0  0  0  0  0  0  0  0
    2.8865  -18.2808   27.5029 H   0  0  0  0  0  0  0  0  0  0  0  0
    0.7841  -19.8261   28.3818 H   0  0  0  0  0  0  0  0  0  0  0  0
    0.7432  -16.2368   30.5107 H   0  0  0  0  0  0  0  0  0  0  0  0
    5.8482  -11.2204   27.7113 H   0  0  0  0  0  0  0  0  0  0  0  0
    6.9545   -8.6505   26.5680 H   0  0  0  0  0  0  0  0  0  0  0  0
    8.8610   -7.7445   25.2824 H   0  0  0  0  0  0  0  0  0  0  0  0
   11.3824   -9.8353   23.9907 H   0  0  0  0  0  0  0  0  0  0  0  0
   10.3208  -11.7571   24.5911 H   0  0  0  0  0  0  0  0  0  0  0  0
    8.7256  -13.6699   25.9330 H   0  0  0  0  0  0  0  0  0  0  0  0
  1  2  2  0
  2  3  1  0
  3  4  1  0
  4  5  1  0
  5  6  1  0
  6  7  1  0
  7  8  2  0
  8  9  1  0
  9 10  2  0
  2 11  1  0
 11 12  2  0
 12 13  1  0
 13 14  2  0
 14 15  1  0
 15 16  2  0
 16 17  1  0
 16 18  1  0
 18 19  2  0
 19 20  1  0
 10  6  1  0
 20 11  1  0
 19 13  1  0
  3 21  1  0
  4 22  1  0
  4 23  1  0
  5 24  1  0
  5 25  1  0
  7 26  1  0
  8 27  1  0
 10 28  1  0
 12 29  1  0
 14 30  1  0
 15 31  1  0
 17 32  1  0
 18 33  1  0
 20 34  1  0
M  END
>  <Energy>  (412) 
4.4119595136130281

>  <compound_id>  (412) 
69372

>  <target_id>  (412) 
1

>  <reference_id>  (412) 
97

>  <inspiration_ids>  (412) 
[97, 35]

>  <energy_score>  (412) 
8.112368154475462

>  <distance_score>  (412) 
15.135008056120924

>  <path>  (412) 
/opt/xchem-fragalysis-2/maxwin/BulkDock/SCRATCH/511015/C69372-P97/C69372-P97.minimised.mol

>  <scratch_subdir>  (412) 
/opt/xchem-fragalysis-2/maxwin/BulkDock/SCRATCH/511015/C69372-P97

>  <fragmenstein_runtime>  (412) 
9.687921285629272

>  <fragmenstein_outcome>  (412) 
too moved

>  <fragmenstein_mode>  (412) 
expansion

>  <fragmenstein_error>  (412) 


$$$$
C69372-P35
     RDKit          3D

 34 36  0  0  0  0  0  0  0  0999 V2000
    2.0445  -11.4324   22.5607 O   0  0  0  0  0  0  0  0  0  0  0  0
    0.9660  -11.1125   22.1546 C   0  0  0  0  0  0  0  0  0  0  0  0
   -0.3086  -12.1371   22.5909 N   0  0  0  0  0  0  0  0  0  0  0  0
   -0.3741  -13.8690   23.5291 C   0  0  0  0  0  0  0  0  0  0  0  0
   -1.1016  -14.3235   25.2197 C   0  0  0  0  0  0  0  0  0  0  0  0
   -1.8990  -15.5342   25.5314 N   0  0  0  0  0  0  0  0  0  0  0  0
   -3.2316  -15.7712   25.2655 C   0  0  0  0  0  0  0  0  0  0  0  0
   -3.5608  -16.9403   25.9216 C   0  0  0  0  0  0  0  0  0  0  0  0
   -2.5031  -17.3880   26.6555 N   0  0  0  0  0  0  0  0  0  0  0  0
   -1.5436  -16.5127   26.4436 C   0  0  0  0  0  0  0  0  0  0  0  0
    0.8903   -9.5308   20.8872 C   0  0  0  0  0  0  0  0  0  0  0  0
    1.0626   -8.2449   19.7536 C   0  0  0  0  0  0  0  0  0  0  0  0
    2.4473   -8.0295   18.4389 C   0  0  0  0  0  0  0  0  0  0  0  0
    4.0399   -7.1996   17.9381 C   0  0  0  0  0  0  0  0  0  0  0  0
    4.3305   -6.5152   16.4578 C   0  0  0  0  0  0  0  0  0  0  0  0
    3.1033   -6.9911   15.3807 C   0  0  0  0  0  0  0  0  0  0  0  0
    2.8922   -6.4672   14.1536 O   0  0  0  0  0  0  0  0  0  0  0  0
    1.8066   -7.8169   16.1037 C   0  0  0  0  0  0  0  0  0  0  0  0
    1.4123   -8.5234   17.6757 C   0  0  0  0  0  0  0  0  0  0  0  0
    1.8275   -9.2662   19.2434 N   0  0  0  0  0  0  0  0  0  0  0  0
   -1.1725  -11.6986   22.2531 H   0  0  0  0  0  0  0  0  0  0  0  0
    0.6646  -14.0432   23.8667 H   0  0  0  0  0  0  0  0  0  0  0  0
   -0.6794  -14.5498   22.7365 H   0  0  0  0  0  0  0  0  0  0  0  0
   -1.7050  -13.4944   25.6176 H   0  0  0  0  0  0  0  0  0  0  0  0
   -0.2241  -14.3856   25.8780 H   0  0  0  0  0  0  0  0  0  0  0  0
   -3.8328  -15.1167   24.6527 H   0  0  0  0  0  0  0  0  0  0  0  0
   -4.5110  -17.4593   25.9236 H   0  0  0  0  0  0  0  0  0  0  0  0
   -0.5691  -16.5342   26.9163 H   0  0  0  0  0  0  0  0  0  0  0  0
    0.0267   -8.1137   19.3635 H   0  0  0  0  0  0  0  0  0  0  0  0
    4.8428   -6.8436   18.5943 H   0  0  0  0  0  0  0  0  0  0  0  0
    5.2566   -5.9762   16.4225 H   0  0  0  0  0  0  0  0  0  0  0  0
    2.1151   -6.9046   13.7713 H   0  0  0  0  0  0  0  0  0  0  0  0
    0.8758   -7.6926   15.5309 H   0  0  0  0  0  0  0  0  0  0  0  0
    2.3001  -10.0751   18.9093 H   0  0  0  0  0  0  0  0  0  0  0  0
  1  2  2  0
  2  3  1  0
  3  4  1  0
  4  5  1  0
  5  6  1  0
  6  7  1  0
  7  8  2  0
  8  9  1  0
  9 10  2  0
  2 11  1  0
 11 12  2  0
 12 13  1  0
 13 14  2  0
 14 15  1  0
 15 16  2  0
 16 17  1  0
 16 18  1  0
 18 19  2  0
 19 20  1  0
 10  6  1  0
 20 11  1  0
 19 13  1  0
  3 21  1  0
  4 22  1  0
  4 23  1  0
  5 24  1  0
  5 25  1  0
  7 26  1  0
  8 27  1  0
 10 28  1  0
 12 29  1  0
 14 30  1  0
 15 31  1  0
 17 32  1  0
 18 33  1  0
 20 34  1  0
M  END
>  <Energy>  (413) 
927.30187669313602

>  <compound_id>  (413) 
69372

>  <target_id>  (413) 
1

>  <reference_id>  (413) 
35

>  <inspiration_ids>  (413) 
[97, 35]

>  <energy_score>  (413) 
931.002285334001

>  <distance_score>  (413) 
13.669013571064799

>  <path>  (413) 
/opt/xchem-fragalysis-2/maxwin/BulkDock/SCRATCH/511015/C69372-P35/C69372-P35.minimised.mol

>  <scratch_subdir>  (413) 
/opt/xchem-fragalysis-2/maxwin/BulkDock/SCRATCH/511015/C69372-P35

>  <fragmenstein_runtime>  (413) 
20.754176139831543

>  <fragmenstein_outcome>  (413) 
too moved

>  <fragmenstein_mode>  (413) 
expansion

>  <fragmenstein_error>  (413) 


$$$$
C69373-P97
     RDKit          3D

 37 39  0  0  0  0  0  0  0  0999 V2000
   11.9621   -5.3161   20.1519 C   0  0  0  0  0  0  0  0  0  0  0  0
   10.3801   -5.6016   20.1152 O   0  0  0  0  0  0  0  0  0  0  0  0
    9.3339   -6.1016   18.9188 C   0  0  0  0  0  0  0  0  0  0  0  0
   10.1381   -4.8617   17.3811 C   0  0  0  0  0  0  0  0  0  0  0  0
    8.3457   -4.6346   16.1893 C   0  0  0  0  0  0  0  0  0  0  0  0
    6.8883   -5.8620   16.8266 C   0  0  0  0  0  0  0  0  0  0  0  0
    6.2002   -7.0387   18.2069 C   0  0  0  0  0  0  0  0  0  0  0  0
    5.2141   -8.6819   18.6510 N   0  0  0  0  0  0  0  0  0  0  0  0
    6.3673  -10.3192   19.0934 C   0  0  0  0  0  0  0  0  0  0  0  0
    5.6673  -11.4334   20.4798 C   0  0  0  0  0  0  0  0  0  0  0  0
    6.1839  -11.1732   21.4951 O   0  0  0  0  0  0  0  0  0  0  0  0
    4.4817  -12.4214   20.3008 N   0  0  0  0  0  0  0  0  0  0  0  0
    3.4651  -13.3225   21.5175 C   0  0  0  0  0  0  0  0  0  0  0  0
    2.9371  -13.9104   23.4001 C   0  0  0  0  0  0  0  0  0  0  0  0
    1.8339  -14.6401   24.2424 N   0  0  0  0  0  0  0  0  0  0  0  0
    0.5350  -15.0875   24.0259 C   0  0  0  0  0  0  0  0  0  0  0  0
    0.1592  -15.8596   25.1054 C   0  0  0  0  0  0  0  0  0  0  0  0
    1.1633  -15.9201   26.0172 N   0  0  0  0  0  0  0  0  0  0  0  0
    2.1235  -15.1739   25.5107 C   0  0  0  0  0  0  0  0  0  0  0  0
    8.0737   -9.3904   18.9877 C   0  0  0  0  0  0  0  0  0  0  0  0
    7.5259   -7.3097   19.2836 C   0  0  0  0  0  0  0  0  0  0  0  0
   12.4267   -5.0972   19.1853 H   0  0  0  0  0  0  0  0  0  0  0  0
   12.1312   -4.4456   20.7961 H   0  0  0  0  0  0  0  0  0  0  0  0
   12.4536   -6.1395   20.6712 H   0  0  0  0  0  0  0  0  0  0  0  0
   11.1573   -4.5679   17.1330 H   0  0  0  0  0  0  0  0  0  0  0  0
    8.5921   -4.1064   15.2397 H   0  0  0  0  0  0  0  0  0  0  0  0
    6.3055   -6.2058   15.9820 H   0  0  0  0  0  0  0  0  0  0  0  0
    4.3724   -9.1001   18.3014 H   0  0  0  0  0  0  0  0  0  0  0  0
    4.1809  -12.3923   19.3312 H   0  0  0  0  0  0  0  0  0  0  0  0
    3.3162  -12.3545   21.9831 H   0  0  0  0  0  0  0  0  0  0  0  0
    2.8064  -13.8317   20.8405 H   0  0  0  0  0  0  0  0  0  0  0  0
    2.8996  -12.9432   23.9011 H   0  0  0  0  0  0  0  0  0  0  0  0
    3.7161  -14.5596   23.8284 H   0  0  0  0  0  0  0  0  0  0  0  0
    0.0141  -14.8845   23.1088 H   0  0  0  0  0  0  0  0  0  0  0  0
   -0.7710  -16.3879   25.2585 H   0  0  0  0  0  0  0  0  0  0  0  0
    3.0778  -14.9876   25.9862 H   0  0  0  0  0  0  0  0  0  0  0  0
    9.0153   -9.7975   19.3419 H   0  0  0  0  0  0  0  0  0  0  0  0
  1  2  1  0
  2  3  1  0
  3  4  2  0
  4  5  1  0
  5  6  2  0
  6  7  1  0
  7  8  1  0
  8  9  1  0
  9 10  1  0
 10 11  2  0
 10 12  1  0
 12 13  1  0
 13 14  1  0
 14 15  1  0
 15 16  1  0
 16 17  2  0
 17 18  1  0
 18 19  2  0
  9 20  2  0
 20 21  1  0
 21  3  1  0
 21  7  2  0
 19 15  1  0
  1 22  1  0
  1 23  1  0
  1 24  1  0
  4 25  1  0
  5 26  1  0
  6 27  1  0
  8 28  1  0
 12 29  1  0
 13 30  1  0
 13 31  1  0
 14 32  1  0
 14 33  1  0
 16 34  1  0
 17 35  1  0
 19 36  1  0
 20 37  1  0
M  END
>  <Energy>  (414) 
1820.8841817035168

>  <compound_id>  (414) 
69373

>  <target_id>  (414) 
1

>  <reference_id>  (414) 
97

>  <inspiration_ids>  (414) 
[97, 35]

>  <energy_score>  (414) 
1797.0593090519753

>  <distance_score>  (414) 
13.463141668804205

>  <path>  (414) 
/opt/xchem-fragalysis-2/maxwin/BulkDock/SCRATCH/511015/C69373-P97/C69373-P97.minimised.mol

>  <scratch_subdir>  (414) 
/opt/xchem-fragalysis-2/maxwin/BulkDock/SCRATCH/511015/C69373-P97

>  <fragmenstein_runtime>  (414) 
12.439326524734497

>  <fragmenstein_outcome>  (414) 
too moved

>  <fragmenstein_mode>  (414) 
expansion

>  <fragmenstein_error>  (414) 


$$$$
C69373-P35
     RDKit          3D

 37 39  0  0  0  0  0  0  0  0999 V2000
   11.4859   -4.0446   15.6225 C   0  0  0  0  0  0  0  0  0  0  0  0
   11.6556   -5.2469   16.3791 O   0  0  0  0  0  0  0  0  0  0  0  0
   11.1960   -6.5132   15.8597 C   0  0  0  0  0  0  0  0  0  0  0  0
   12.2015   -7.5983   15.9903 C   0  0  0  0  0  0  0  0  0  0  0  0
   11.5414   -9.2335   15.8054 C   0  0  0  0  0  0  0  0  0  0  0  0
    9.8716   -8.8192   15.2685 C   0  0  0  0  0  0  0  0  0  0  0  0
    8.7514   -7.2432   14.8112 C   0  0  0  0  0  0  0  0  0  0  0  0
    6.8885   -7.2145   15.3333 N   0  0  0  0  0  0  0  0  0  0  0  0
    6.0661   -7.1663   17.0643 C   0  0  0  0  0  0  0  0  0  0  0  0
    5.1210   -8.7555   18.1720 C   0  0  0  0  0  0  0  0  0  0  0  0
    3.8905   -8.7616   18.2761 O   0  0  0  0  0  0  0  0  0  0  0  0
    6.0999  -10.2967   18.9043 N   0  0  0  0  0  0  0  0  0  0  0  0
    5.5926  -11.6744   19.8047 C   0  0  0  0  0  0  0  0  0  0  0  0
    4.5056  -12.8143   20.5318 C   0  0  0  0  0  0  0  0  0  0  0  0
    3.5609  -12.8613   21.7652 N   0  0  0  0  0  0  0  0  0  0  0  0
    3.5434  -11.8342   22.6393 C   0  0  0  0  0  0  0  0  0  0  0  0
    2.5911  -12.1346   23.5453 C   0  0  0  0  0  0  0  0  0  0  0  0
    2.9572  -13.2375   24.0507 N   0  0  0  0  0  0  0  0  0  0  0  0
    3.1274  -13.8666   22.9704 C   0  0  0  0  0  0  0  0  0  0  0  0
    7.5310   -6.4775   16.0744 C   0  0  0  0  0  0  0  0  0  0  0  0
    9.5213   -7.2198   15.7339 C   0  0  0  0  0  0  0  0  0  0  0  0
   10.7813   -4.1264   14.7944 H   0  0  0  0  0  0  0  0  0  0  0  0
   12.4602   -3.7298   15.2386 H   0  0  0  0  0  0  0  0  0  0  0  0
   11.1657   -3.2482   16.2922 H   0  0  0  0  0  0  0  0  0  0  0  0
   13.1268   -7.3090   15.5571 H   0  0  0  0  0  0  0  0  0  0  0  0
   12.0269  -10.1890   15.7086 H   0  0  0  0  0  0  0  0  0  0  0  0
    9.4730   -9.9022   15.2038 H   0  0  0  0  0  0  0  0  0  0  0  0
    6.4025   -7.7216   14.6003 H   0  0  0  0  0  0  0  0  0  0  0  0
    7.0788  -10.1937   18.6725 H   0  0  0  0  0  0  0  0  0  0  0  0
    5.3605  -12.1239   18.8769 H   0  0  0  0  0  0  0  0  0  0  0  0
    6.5760  -12.0740   20.0662 H   0  0  0  0  0  0  0  0  0  0  0  0
    5.3085  -13.5200   20.7463 H   0  0  0  0  0  0  0  0  0  0  0  0
    3.9961  -13.2052   19.6673 H   0  0  0  0  0  0  0  0  0  0  0  0
    4.1694  -10.9983   22.4333 H   0  0  0  0  0  0  0  0  0  0  0  0
    1.8978  -11.6849   24.1734 H   0  0  0  0  0  0  0  0  0  0  0  0
    3.2053  -14.8994   22.9809 H   0  0  0  0  0  0  0  0  0  0  0  0
    7.4848   -5.3955   16.0266 H   0  0  0  0  0  0  0  0  0  0  0  0
  1  2  1  0
  2  3  1  0
  3  4  2  0
  4  5  1  0
  5  6  2  0
  6  7  1  0
  7  8  1  0
  8  9  1  0
  9 10  1  0
 10 11  2  0
 10 12  1  0
 12 13  1  0
 13 14  1  0
 14 15  1  0
 15 16  1  0
 16 17  2  0
 17 18  1  0
 18 19  2  0
  9 20  2  0
 20 21  1  0
 21  3  1  0
 21  7  2  0
 19 15  1  0
  1 22  1  0
  1 23  1  0
  1 24  1  0
  4 25  1  0
  5 26  1  0
  6 27  1  0
  8 28  1  0
 12 29  1  0
 13 30  1  0
 13 31  1  0
 14 32  1  0
 14 33  1  0
 16 34  1  0
 17 35  1  0
 19 36  1  0
 20 37  1  0
M  END
>  <Energy>  (415) 
1555.1629118382907

>  <compound_id>  (415) 
69373

>  <target_id>  (415) 
1

>  <reference_id>  (415) 
35

>  <inspiration_ids>  (415) 
[97, 35]

>  <energy_score>  (415) 
1531.3380391867477

>  <distance_score>  (415) 
14.777675343381354

>  <path>  (415) 
/opt/xchem-fragalysis-2/maxwin/BulkDock/SCRATCH/511015/C69373-P35/C69373-P35.minimised.mol

>  <scratch_subdir>  (415) 
/opt/xchem-fragalysis-2/maxwin/BulkDock/SCRATCH/511015/C69373-P35

>  <fragmenstein_runtime>  (415) 
11.852303266525269

>  <fragmenstein_outcome>  (415) 
too moved

>  <fragmenstein_mode>  (415) 
expansion

>  <fragmenstein_error>  (415) 


$$$$
C69374-P97
     RDKit          3D

 36 38  0  0  0  0  0  0  0  0999 V2000
   -7.4014  -11.6233   20.9505 O   0  0  0  0  0  0  0  0  0  0  0  0
   -6.4637  -12.2679   20.5788 C   0  0  0  0  0  0  0  0  0  0  0  0
   -6.1604  -13.6843   20.7477 N   0  0  0  0  0  0  0  0  0  0  0  0
   -6.9742  -14.8075   21.3556 C   0  0  0  0  0  0  0  0  0  0  0  0
   -6.3403  -15.6192   22.5542 C   0  0  0  0  0  0  0  0  0  0  0  0
   -7.0647  -16.7497   23.1462 N   0  0  0  0  0  0  0  0  0  0  0  0
   -6.9471  -18.0751   22.7936 C   0  0  0  0  0  0  0  0  0  0  0  0
   -7.5761  -18.7914   23.7906 C   0  0  0  0  0  0  0  0  0  0  0  0
   -8.0687  -17.9476   24.7484 N   0  0  0  0  0  0  0  0  0  0  0  0
   -7.7428  -16.7372   24.3439 C   0  0  0  0  0  0  0  0  0  0  0  0
   -5.4055  -11.4413   19.8571 C   0  0  0  0  0  0  0  0  0  0  0  0
   -4.1437  -11.6638   19.3008 C   0  0  0  0  0  0  0  0  0  0  0  0
   -3.5855  -10.4137   18.8586 C   0  0  0  0  0  0  0  0  0  0  0  0
   -2.3676  -10.0321   18.2917 C   0  0  0  0  0  0  0  0  0  0  0  0
   -2.1012   -8.7104   17.9149 C   0  0  0  0  0  0  0  0  0  0  0  0
   -3.0905   -7.7575   18.0601 C   0  0  0  0  0  0  0  0  0  0  0  0
   -4.3238   -8.0738   18.6719 C   0  0  0  0  0  0  0  0  0  0  0  0
   -5.3566   -6.9898   18.8582 C   0  0  0  0  0  0  0  0  0  0  0  0
   -4.8664   -5.8940   19.5002 F   0  0  0  0  0  0  0  0  0  0  0  0
   -5.8578   -6.5394   17.6748 F   0  0  0  0  0  0  0  0  0  0  0  0
   -6.4361   -7.3957   19.5873 F   0  0  0  0  0  0  0  0  0  0  0  0
   -4.5244   -9.4239   19.0633 C   0  0  0  0  0  0  0  0  0  0  0  0
   -5.5896  -10.0570   19.6784 N   0  0  0  0  0  0  0  0  0  0  0  0
   -5.3195  -13.9060   20.2301 H   0  0  0  0  0  0  0  0  0  0  0  0
   -7.9239  -14.3704   21.6822 H   0  0  0  0  0  0  0  0  0  0  0  0
   -7.1916  -15.4967   20.5326 H   0  0  0  0  0  0  0  0  0  0  0  0
   -6.1301  -14.9204   23.3731 H   0  0  0  0  0  0  0  0  0  0  0  0
   -5.3696  -16.0150   22.2299 H   0  0  0  0  0  0  0  0  0  0  0  0
   -6.4221  -18.3919   21.9035 H   0  0  0  0  0  0  0  0  0  0  0  0
   -7.6896  -19.8650   23.8702 H   0  0  0  0  0  0  0  0  0  0  0  0
   -7.9523  -15.8215   24.8821 H   0  0  0  0  0  0  0  0  0  0  0  0
   -3.6341  -12.6171   19.2520 H   0  0  0  0  0  0  0  0  0  0  0  0
   -1.6585  -10.8304   18.1675 H   0  0  0  0  0  0  0  0  0  0  0  0
   -1.1333   -8.4224   17.5204 H   0  0  0  0  0  0  0  0  0  0  0  0
   -2.9010   -6.7340   17.7404 H   0  0  0  0  0  0  0  0  0  0  0  0
   -6.4358   -9.5929   19.9881 H   0  0  0  0  0  0  0  0  0  0  0  0
  1  2  2  0
  2  3  1  0
  3  4  1  0
  4  5  1  0
  5  6  1  0
  6  7  1  0
  7  8  2  0
  8  9  1  0
  9 10  2  0
  2 11  1  0
 11 12  2  0
 12 13  1  0
 13 14  2  0
 14 15  1  0
 15 16  2  0
 16 17  1  0
 17 18  1  0
 18 19  1  0
 18 20  1  0
 18 21  1  0
 17 22  2  0
 22 23  1  0
 10  6  1  0
 23 11  1  0
 22 13  1  0
  3 24  1  0
  4 25  1  0
  4 26  1  0
  5 27  1  0
  5 28  1  0
  7 29  1  0
  8 30  1  0
 10 31  1  0
 12 32  1  0
 14 33  1  0
 15 34  1  0
 16 35  1  0
 23 36  1  0
M  END
>  <Energy>  (416) 
30.445937986949318

>  <compound_id>  (416) 
69374

>  <target_id>  (416) 
1

>  <reference_id>  (416) 
97

>  <inspiration_ids>  (416) 
[97, 35]

>  <energy_score>  (416) 
-0.6333007819812337

>  <distance_score>  (416) 
16.96835879947296

>  <path>  (416) 
/opt/xchem-fragalysis-2/maxwin/BulkDock/SCRATCH/511015/C69374-P97/C69374-P97.minimised.mol

>  <scratch_subdir>  (416) 
/opt/xchem-fragalysis-2/maxwin/BulkDock/SCRATCH/511015/C69374-P97

>  <fragmenstein_runtime>  (416) 
18.672860383987427

>  <fragmenstein_outcome>  (416) 
too moved

>  <fragmenstein_mode>  (416) 
expansion

>  <fragmenstein_error>  (416) 


$$$$
C69374-P35
     RDKit          3D

 36 38  0  0  0  0  0  0  0  0999 V2000
    6.5429   -7.5798   20.5323 O   0  0  0  0  0  0  0  0  0  0  0  0
    7.1294   -7.9553   19.5936 C   0  0  0  0  0  0  0  0  0  0  0  0
    7.2658   -9.9739   19.3053 N   0  0  0  0  0  0  0  0  0  0  0  0
    6.4586  -11.4444   20.2121 C   0  0  0  0  0  0  0  0  0  0  0  0
    5.4062  -12.9647   19.6260 C   0  0  0  0  0  0  0  0  0  0  0  0
    5.6763  -14.5805   18.9166 N   0  0  0  0  0  0  0  0  0  0  0  0
    4.6514  -15.3132   18.1621 C   0  0  0  0  0  0  0  0  0  0  0  0
    5.0330  -16.6280   18.0685 C   0  0  0  0  0  0  0  0  0  0  0  0
    6.2892  -16.7746   18.5562 N   0  0  0  0  0  0  0  0  0  0  0  0
    6.6790  -15.5695   18.9375 C   0  0  0  0  0  0  0  0  0  0  0  0
    7.6237   -6.4383   18.4931 C   0  0  0  0  0  0  0  0  0  0  0  0
    9.6345   -5.9697   18.7785 C   0  0  0  0  0  0  0  0  0  0  0  0
   10.2554   -4.6782   17.1496 C   0  0  0  0  0  0  0  0  0  0  0  0
   11.4518   -3.8055   16.9568 C   0  0  0  0  0  0  0  0  0  0  0  0
   11.2752   -2.5048   16.3507 C   0  0  0  0  0  0  0  0  0  0  0  0
   10.1465   -2.2072   15.5463 C   0  0  0  0  0  0  0  0  0  0  0  0
    9.4356   -3.3746   14.9415 C   0  0  0  0  0  0  0  0  0  0  0  0
   11.0251   -3.6067   14.0387 C   0  0  0  0  0  0  0  0  0  0  0  0
   11.4896   -2.4153   13.4978 F   0  0  0  0  0  0  0  0  0  0  0  0
   12.1082   -3.9568   14.7867 F   0  0  0  0  0  0  0  0  0  0  0  0
   11.0799   -4.4431   12.9884 F   0  0  0  0  0  0  0  0  0  0  0  0
    8.5501   -4.4378   16.0124 C   0  0  0  0  0  0  0  0  0  0  0  0
    7.3085   -5.7662   16.7195 N   0  0  0  0  0  0  0  0  0  0  0  0
    7.7193  -10.1521   18.4280 H   0  0  0  0  0  0  0  0  0  0  0  0
    7.1995  -12.1763   20.4279 H   0  0  0  0  0  0  0  0  0  0  0  0
    5.9261  -11.1800   21.1111 H   0  0  0  0  0  0  0  0  0  0  0  0
    4.5758  -12.6793   18.9839 H   0  0  0  0  0  0  0  0  0  0  0  0
    4.9974  -13.2596   20.5734 H   0  0  0  0  0  0  0  0  0  0  0  0
    3.6907  -14.8381   18.0374 H   0  0  0  0  0  0  0  0  0  0  0  0
    4.4574  -17.4642   17.6982 H   0  0  0  0  0  0  0  0  0  0  0  0
    7.6877  -15.3714   19.2776 H   0  0  0  0  0  0  0  0  0  0  0  0
   10.1284   -5.7364   19.7414 H   0  0  0  0  0  0  0  0  0  0  0  0
   12.3326   -3.9942   17.5697 H   0  0  0  0  0  0  0  0  0  0  0  0
   12.0589   -1.7583   16.4791 H   0  0  0  0  0  0  0  0  0  0  0  0
   10.1213   -1.2531   15.0134 H   0  0  0  0  0  0  0  0  0  0  0  0
    6.7426   -6.3111   16.0899 H   0  0  0  0  0  0  0  0  0  0  0  0
  1  2  2  0
  2  3  1  0
  3  4  1  0
  4  5  1  0
  5  6  1  0
  6  7  1  0
  7  8  2  0
  8  9  1  0
  9 10  2  0
  2 11  1  0
 11 12  2  0
 12 13  1  0
 13 14  2  0
 14 15  1  0
 15 16  2  0
 16 17  1  0
 17 18  1  0
 18 19  1  0
 18 20  1  0
 18 21  1  0
 17 22  2  0
 22 23  1  0
 10  6  1  0
 23 11  1  0
 22 13  1  0
  3 24  1  0
  4 25  1  0
  4 26  1  0
  5 27  1  0
  5 28  1  0
  7 29  1  0
  8 30  1  0
 10 31  1  0
 12 32  1  0
 14 33  1  0
 15 34  1  0
 16 35  1  0
 23 36  1  0
M  END
>  <Energy>  (417) 
1337.9032975749801

>  <compound_id>  (417) 
69374

>  <target_id>  (417) 
1

>  <reference_id>  (417) 
35

>  <inspiration_ids>  (417) 
[97, 35]

>  <energy_score>  (417) 
1306.82405880606

>  <distance_score>  (417) 
15.197570573231962

>  <path>  (417) 
/opt/xchem-fragalysis-2/maxwin/BulkDock/SCRATCH/511015/C69374-P35/C69374-P35.minimised.mol

>  <scratch_subdir>  (417) 
/opt/xchem-fragalysis-2/maxwin/BulkDock/SCRATCH/511015/C69374-P35

>  <fragmenstein_runtime>  (417) 
19.99326992034912

>  <fragmenstein_outcome>  (417) 
too moved

>  <fragmenstein_mode>  (417) 
expansion

>  <fragmenstein_error>  (417) 


$$$$
C69375-P97
     RDKit          3D

 37 39  0  0  0  0  0  0  0  0999 V2000
    9.3026  -10.1474   15.8251 C   0  0  0  0  0  0  0  0  0  0  0  0
    7.8724   -9.4534   15.6025 O   0  0  0  0  0  0  0  0  0  0  0  0
    7.1326   -7.7289   14.9763 C   0  0  0  0  0  0  0  0  0  0  0  0
    5.9346   -7.4447   14.3943 C   0  0  0  0  0  0  0  0  0  0  0  0
    4.5267   -8.0722   13.5612 C   0  0  0  0  0  0  0  0  0  0  0  0
    4.7433   -8.9093   12.7232 O   0  0  0  0  0  0  0  0  0  0  0  0
    3.1492   -7.4931   14.0983 N   0  0  0  0  0  0  0  0  0  0  0  0
    1.6625   -7.8613   13.7215 C   0  0  0  0  0  0  0  0  0  0  0  0
    0.4157   -7.6409   14.9380 C   0  0  0  0  0  0  0  0  0  0  0  0
   -0.8596   -8.4003   15.1626 N   0  0  0  0  0  0  0  0  0  0  0  0
   -1.4618   -9.3943   14.4170 C   0  0  0  0  0  0  0  0  0  0  0  0
   -2.4499   -9.9510   15.2129 C   0  0  0  0  0  0  0  0  0  0  0  0
   -2.5244   -9.3037   16.4127 N   0  0  0  0  0  0  0  0  0  0  0  0
   -1.6000   -8.3637   16.3478 C   0  0  0  0  0  0  0  0  0  0  0  0
    5.8812   -6.5760   16.0065 N   0  0  0  0  0  0  0  0  0  0  0  0
    6.4907   -5.3756   15.9469 C   0  0  0  0  0  0  0  0  0  0  0  0
    6.0307   -3.6553   15.2293 C   0  0  0  0  0  0  0  0  0  0  0  0
    6.8712   -2.5863   14.7593 C   0  0  0  0  0  0  0  0  0  0  0  0
    8.1958   -2.8776   14.8650 C   0  0  0  0  0  0  0  0  0  0  0  0
    8.6353   -4.3313   15.2041 C   0  0  0  0  0  0  0  0  0  0  0  0
    7.6558   -5.9574   15.6132 C   0  0  0  0  0  0  0  0  0  0  0  0
    9.3746  -10.9345   15.0687 H   0  0  0  0  0  0  0  0  0  0  0  0
    9.2488  -10.6070   16.8135 H   0  0  0  0  0  0  0  0  0  0  0  0
   10.1153   -9.4590   15.7184 H   0  0  0  0  0  0  0  0  0  0  0  0
    3.3294   -6.7413   14.7448 H   0  0  0  0  0  0  0  0  0  0  0  0
    1.4032   -7.1720   12.9099 H   0  0  0  0  0  0  0  0  0  0  0  0
    1.6701   -8.8670   13.2947 H   0  0  0  0  0  0  0  0  0  0  0  0
    0.1024   -6.5931   14.8516 H   0  0  0  0  0  0  0  0  0  0  0  0
    0.9600   -7.7468   15.8783 H   0  0  0  0  0  0  0  0  0  0  0  0
   -1.1162   -9.6505   13.4253 H   0  0  0  0  0  0  0  0  0  0  0  0
   -3.1065  -10.7773   14.9734 H   0  0  0  0  0  0  0  0  0  0  0  0
   -1.3771   -7.6596   17.1380 H   0  0  0  0  0  0  0  0  0  0  0  0
    4.9733   -6.5187   16.4514 H   0  0  0  0  0  0  0  0  0  0  0  0
    4.9421   -3.4186   15.3616 H   0  0  0  0  0  0  0  0  0  0  0  0
    6.4851   -1.6288   14.4442 H   0  0  0  0  0  0  0  0  0  0  0  0
    8.9653   -2.1366   14.6823 H   0  0  0  0  0  0  0  0  0  0  0  0
    9.7521   -4.3252   14.9882 H   0  0  0  0  0  0  0  0  0  0  0  0
  1  2  1  0
  2  3  1  0
  3  4  2  0
  4  5  1  0
  5  6  2  0
  5  7  1  0
  7  8  1  0
  8  9  1  0
  9 10  1  0
 10 11  1  0
 11 12  2  0
 12 13  1  0
 13 14  2  0
  4 15  1  0
 15 16  1  0
 16 17  2  0
 17 18  1  0
 18 19  2  0
 19 20  1  0
 20 21  2  0
 21  3  1  0
 14 10  1  0
 21 16  1  0
  1 22  1  0
  1 23  1  0
  1 24  1  0
  7 25  1  0
  8 26  1  0
  8 27  1  0
  9 28  1  0
  9 29  1  0
 11 30  1  0
 12 31  1  0
 14 32  1  0
 15 33  1  0
 17 34  1  0
 18 35  1  0
 19 36  1  0
 20 37  1  0
M  END
>  <Energy>  (418) 
647.86694463215451

>  <compound_id>  (418) 
69375

>  <target_id>  (418) 
1

>  <reference_id>  (418) 
97

>  <inspiration_ids>  (418) 
[97, 35]

>  <energy_score>  (418) 
642.1617795750824

>  <distance_score>  (418) 
16.606197808521017

>  <path>  (418) 
/opt/xchem-fragalysis-2/maxwin/BulkDock/SCRATCH/511015/C69375-P97/C69375-P97.minimised.mol

>  <scratch_subdir>  (418) 
/opt/xchem-fragalysis-2/maxwin/BulkDock/SCRATCH/511015/C69375-P97

>  <fragmenstein_runtime>  (418) 
9.501437425613403

>  <fragmenstein_outcome>  (418) 
too moved

>  <fragmenstein_mode>  (418) 
expansion

>  <fragmenstein_error>  (418) 


$$$$
C69375-P35
     RDKit          3D

 37 39  0  0  0  0  0  0  0  0999 V2000
    4.2511   -7.1847   18.0837 C   0  0  0  0  0  0  0  0  0  0  0  0
    2.6334   -8.2142   18.2896 O   0  0  0  0  0  0  0  0  0  0  0  0
    1.1965   -8.4114   19.2989 C   0  0  0  0  0  0  0  0  0  0  0  0
    0.6629   -9.1086   20.9149 C   0  0  0  0  0  0  0  0  0  0  0  0
   -0.2458  -10.6228   21.6408 C   0  0  0  0  0  0  0  0  0  0  0  0
   -1.3698  -10.6901   21.1822 O   0  0  0  0  0  0  0  0  0  0  0  0
    0.4526  -11.9303   22.7280 N   0  0  0  0  0  0  0  0  0  0  0  0
   -0.2847  -13.7745   23.3010 C   0  0  0  0  0  0  0  0  0  0  0  0
   -1.5924  -15.2003   22.7250 C   0  0  0  0  0  0  0  0  0  0  0  0
   -3.0157  -15.7145   22.9456 N   0  0  0  0  0  0  0  0  0  0  0  0
   -3.6759  -15.8575   24.1701 C   0  0  0  0  0  0  0  0  0  0  0  0
   -4.6284  -16.8353   24.0017 C   0  0  0  0  0  0  0  0  0  0  0  0
   -4.5915  -17.3114   22.7254 N   0  0  0  0  0  0  0  0  0  0  0  0
   -3.6240  -16.6479   22.1246 C   0  0  0  0  0  0  0  0  0  0  0  0
   -0.6203   -8.4755   20.6816 N   0  0  0  0  0  0  0  0  0  0  0  0
   -1.1569   -8.5529   19.3785 C   0  0  0  0  0  0  0  0  0  0  0  0
   -2.4981   -8.6472   18.9721 C   0  0  0  0  0  0  0  0  0  0  0  0
   -2.8209   -8.4185   17.6307 C   0  0  0  0  0  0  0  0  0  0  0  0
   -1.8466   -8.1512   16.6927 C   0  0  0  0  0  0  0  0  0  0  0  0
   -0.5238   -8.1633   17.0992 C   0  0  0  0  0  0  0  0  0  0  0  0
   -0.1304   -8.3555   18.4876 C   0  0  0  0  0  0  0  0  0  0  0  0
    4.4616   -6.7113   17.1009 H   0  0  0  0  0  0  0  0  0  0  0  0
    4.5124   -6.4342   18.8328 H   0  0  0  0  0  0  0  0  0  0  0  0
    5.0266   -7.9084   18.3432 H   0  0  0  0  0  0  0  0  0  0  0  0
    1.3734  -11.6252   23.0643 H   0  0  0  0  0  0  0  0  0  0  0  0
   -0.8021  -13.8521   24.3012 H   0  0  0  0  0  0  0  0  0  0  0  0
    0.6284  -14.2210   23.7040 H   0  0  0  0  0  0  0  0  0  0  0  0
   -1.4853  -15.6317   23.7233 H   0  0  0  0  0  0  0  0  0  0  0  0
   -1.1813  -15.8568   21.9509 H   0  0  0  0  0  0  0  0  0  0  0  0
   -3.3816  -15.2995   25.0478 H   0  0  0  0  0  0  0  0  0  0  0  0
   -5.3234  -17.2258   24.7335 H   0  0  0  0  0  0  0  0  0  0  0  0
   -3.2895  -16.8205   21.1093 H   0  0  0  0  0  0  0  0  0  0  0  0
   -1.2965   -8.5607   21.4170 H   0  0  0  0  0  0  0  0  0  0  0  0
   -3.2833   -8.8272   19.6997 H   0  0  0  0  0  0  0  0  0  0  0  0
   -3.8643   -8.4535   17.3268 H   0  0  0  0  0  0  0  0  0  0  0  0
   -2.1047   -7.9894   15.6520 H   0  0  0  0  0  0  0  0  0  0  0  0
    0.2439   -8.0388   16.3356 H   0  0  0  0  0  0  0  0  0  0  0  0
  1  2  1  0
  2  3  1  0
  3  4  2  0
  4  5  1  0
  5  6  2  0
  5  7  1  0
  7  8  1  0
  8  9  1  0
  9 10  1  0
 10 11  1  0
 11 12  2  0
 12 13  1  0
 13 14  2  0
  4 15  1  0
 15 16  1  0
 16 17  2  0
 17 18  1  0
 18 19  2  0
 19 20  1  0
 20 21  2  0
 21  3  1  0
 14 10  1  0
 21 16  1  0
  1 22  1  0
  1 23  1  0
  1 24  1  0
  7 25  1  0
  8 26  1  0
  8 27  1  0
  9 28  1  0
  9 29  1  0
 11 30  1  0
 12 31  1  0
 14 32  1  0
 15 33  1  0
 17 34  1  0
 18 35  1  0
 19 36  1  0
 20 37  1  0
M  END
>  <Energy>  (419) 
698.44390956052212

>  <compound_id>  (419) 
69375

>  <target_id>  (419) 
1

>  <reference_id>  (419) 
35

>  <inspiration_ids>  (419) 
[97, 35]

>  <energy_score>  (419) 
692.7387445034627

>  <distance_score>  (419) 
15.495027533746553

>  <path>  (419) 
/opt/xchem-fragalysis-2/maxwin/BulkDock/SCRATCH/511015/C69375-P35/C69375-P35.minimised.mol

>  <scratch_subdir>  (419) 
/opt/xchem-fragalysis-2/maxwin/BulkDock/SCRATCH/511015/C69375-P35

>  <fragmenstein_runtime>  (419) 
23.257370471954346

>  <fragmenstein_outcome>  (419) 
too moved

>  <fragmenstein_mode>  (419) 
expansion

>  <fragmenstein_error>  (419) 


$$$$
C69376-P97
     RDKit          3D

 46 48  0  0  0  0  0  0  0  0999 V2000
   11.5282    0.3942   14.8945 C   0  0  0  0  0  0  0  0  0  0  0  0
   10.0432    0.0673   14.9269 C   0  0  0  0  0  0  0  0  0  0  0  0
    9.8047   -1.4276   15.1693 C   0  0  0  0  0  0  0  0  0  0  0  0
    8.3126   -1.7916   15.0918 C   0  0  0  0  0  0  0  0  0  0  0  0
    7.8068   -3.1491   15.1293 O   0  0  0  0  0  0  0  0  0  0  0  0
    8.3124   -4.4392   15.8402 C   0  0  0  0  0  0  0  0  0  0  0  0
   10.1898   -4.2586   16.2905 C   0  0  0  0  0  0  0  0  0  0  0  0
   10.5829   -5.2518   17.7784 C   0  0  0  0  0  0  0  0  0  0  0  0
    9.3323   -6.2015   19.0080 C   0  0  0  0  0  0  0  0  0  0  0  0
    9.2719   -8.2013   19.6481 C   0  0  0  0  0  0  0  0  0  0  0  0
    8.1054   -9.5209   19.0987 C   0  0  0  0  0  0  0  0  0  0  0  0
    6.5428  -10.6940   19.7470 C   0  0  0  0  0  0  0  0  0  0  0  0
    5.9331  -11.0827   18.8211 O   0  0  0  0  0  0  0  0  0  0  0  0
    5.7685  -11.1001   21.4794 N   0  0  0  0  0  0  0  0  0  0  0  0
    4.0042  -11.9300   22.0371 C   0  0  0  0  0  0  0  0  0  0  0  0
    2.9225  -12.7346   23.6910 C   0  0  0  0  0  0  0  0  0  0  0  0
    1.6371  -12.8988   25.1345 N   0  0  0  0  0  0  0  0  0  0  0  0
    0.9407  -12.0333   26.3854 C   0  0  0  0  0  0  0  0  0  0  0  0
    0.4024  -12.8443   27.3708 C   0  0  0  0  0  0  0  0  0  0  0  0
    0.1425  -14.0665   26.9260 N   0  0  0  0  0  0  0  0  0  0  0  0
    0.4703  -13.9890   25.6646 C   0  0  0  0  0  0  0  0  0  0  0  0
    7.2518   -7.7405   19.4459 N   0  0  0  0  0  0  0  0  0  0  0  0
    7.3950   -6.4670   18.4218 C   0  0  0  0  0  0  0  0  0  0  0  0
    7.0875   -5.6795   16.7287 C   0  0  0  0  0  0  0  0  0  0  0  0
   12.0174    0.1054   15.8297 H   0  0  0  0  0  0  0  0  0  0  0  0
   11.6765    1.4688   14.7496 H   0  0  0  0  0  0  0  0  0  0  0  0
   12.0249   -0.1308   14.0720 H   0  0  0  0  0  0  0  0  0  0  0  0
    9.5951    0.3822   13.9798 H   0  0  0  0  0  0  0  0  0  0  0  0
    9.5614    0.6493   15.7213 H   0  0  0  0  0  0  0  0  0  0  0  0
   10.2160   -1.6429   16.1420 H   0  0  0  0  0  0  0  0  0  0  0  0
   10.4183   -2.0409   14.5068 H   0  0  0  0  0  0  0  0  0  0  0  0
    7.8739   -1.3725   14.1819 H   0  0  0  0  0  0  0  0  0  0  0  0
    7.7944   -1.2295   15.8716 H   0  0  0  0  0  0  0  0  0  0  0  0
   10.9161   -3.6820   15.7423 H   0  0  0  0  0  0  0  0  0  0  0  0
   11.6612   -4.9412   18.0058 H   0  0  0  0  0  0  0  0  0  0  0  0
   10.1360   -8.5934   20.1780 H   0  0  0  0  0  0  0  0  0  0  0  0
    6.4085  -10.8014   22.1941 H   0  0  0  0  0  0  0  0  0  0  0  0
    3.5358  -11.0128   22.2765 H   0  0  0  0  0  0  0  0  0  0  0  0
    4.4872  -11.2981   22.7893 H   0  0  0  0  0  0  0  0  0  0  0  0
    2.1419  -12.0308   23.4160 H   0  0  0  0  0  0  0  0  0  0  0  0
    2.8188  -13.7981   23.4750 H   0  0  0  0  0  0  0  0  0  0  0  0
    1.1531  -10.9891   26.4549 H   0  0  0  0  0  0  0  0  0  0  0  0
    0.1181  -12.5343   28.3673 H   0  0  0  0  0  0  0  0  0  0  0  0
   -0.0714  -14.4564   24.8796 H   0  0  0  0  0  0  0  0  0  0  0  0
    6.2883   -7.9311   19.3870 H   0  0  0  0  0  0  0  0  0  0  0  0
    6.0786   -5.9126   16.4362 H   0  0  0  0  0  0  0  0  0  0  0  0
  1  2  1  0
  2  3  1  0
  3  4  1  0
  4  5  1  0
  5  6  1  0
  6  7  2  0
  7  8  1  0
  8  9  2  0
  9 10  1  0
 10 11  2  0
 11 12  1  0
 12 13  2  0
 12 14  1  0
 14 15  1  0
 15 16  1  0
 16 17  1  0
 17 18  1  0
 18 19  2  0
 19 20  1  0
 20 21  2  0
 11 22  1  0
 22 23  1  0
 23 24  2  0
 24  6  1  0
 23  9  1  0
 21 17  1  0
  1 25  1  0
  1 26  1  0
  1 27  1  0
  2 28  1  0
  2 29  1  0
  3 30  1  0
  3 31  1  0
  4 32  1  0
  4 33  1  0
  7 34  1  0
  8 35  1  0
 10 36  1  0
 14 37  1  0
 15 38  1  0
 15 39  1  0
 16 40  1  0
 16 41  1  0
 18 42  1  0
 19 43  1  0
 21 44  1  0
 22 45  1  0
 24 46  1  0
M  END
>  <Energy>  (420) 
1704.2893377182727

>  <compound_id>  (420) 
69376

>  <target_id>  (420) 
1

>  <reference_id>  (420) 
97

>  <inspiration_ids>  (420) 
[97, 35]

>  <energy_score>  (420) 
1676.6131506447389

>  <distance_score>  (420) 
12.970927723842355

>  <path>  (420) 
/opt/xchem-fragalysis-2/maxwin/BulkDock/SCRATCH/511015/C69376-P97/C69376-P97.minimised.mol

>  <scratch_subdir>  (420) 
/opt/xchem-fragalysis-2/maxwin/BulkDock/SCRATCH/511015/C69376-P97

>  <fragmenstein_runtime>  (420) 
19.0958890914917

>  <fragmenstein_outcome>  (420) 
too moved

>  <fragmenstein_mode>  (420) 
expansion

>  <fragmenstein_error>  (420) 


$$$$
C69376-P35
     RDKit          3D

 46 48  0  0  0  0  0  0  0  0999 V2000
   -4.6710   -2.9598    9.8084 C   0  0  0  0  0  0  0  0  0  0  0  0
   -4.7035   -3.9359   10.9735 C   0  0  0  0  0  0  0  0  0  0  0  0
   -3.2983   -4.2494   11.4796 C   0  0  0  0  0  0  0  0  0  0  0  0
   -3.3256   -5.2294   12.6501 C   0  0  0  0  0  0  0  0  0  0  0  0
   -1.9769   -5.4643   13.0538 O   0  0  0  0  0  0  0  0  0  0  0  0
   -1.7807   -6.2557   14.1551 C   0  0  0  0  0  0  0  0  0  0  0  0
   -0.4596   -6.3574   14.5547 C   0  0  0  0  0  0  0  0  0  0  0  0
   -0.1471   -7.1369   15.6637 C   0  0  0  0  0  0  0  0  0  0  0  0
   -1.1560   -7.7807   16.4407 C   0  0  0  0  0  0  0  0  0  0  0  0
   -1.2468   -8.5148   17.6821 C   0  0  0  0  0  0  0  0  0  0  0  0
   -2.4243   -9.2833   17.7103 C   0  0  0  0  0  0  0  0  0  0  0  0
   -2.9973  -10.3685   18.6383 C   0  0  0  0  0  0  0  0  0  0  0  0
   -4.0022   -9.9907   19.1735 O   0  0  0  0  0  0  0  0  0  0  0  0
   -2.2197  -11.6335   18.8189 N   0  0  0  0  0  0  0  0  0  0  0  0
   -2.4033  -12.7836   19.8083 C   0  0  0  0  0  0  0  0  0  0  0  0
   -2.1117  -14.7206   20.0043 C   0  0  0  0  0  0  0  0  0  0  0  0
   -3.0759  -16.1435   20.1686 N   0  0  0  0  0  0  0  0  0  0  0  0
   -2.7175  -17.4089   19.7070 C   0  0  0  0  0  0  0  0  0  0  0  0
   -3.6525  -18.3045   20.1893 C   0  0  0  0  0  0  0  0  0  0  0  0
   -4.6351  -17.6657   20.8840 N   0  0  0  0  0  0  0  0  0  0  0  0
   -4.2865  -16.3962   20.8647 C   0  0  0  0  0  0  0  0  0  0  0  0
   -3.2015   -8.5828   16.7740 N   0  0  0  0  0  0  0  0  0  0  0  0
   -2.4459   -7.7490   15.9584 C   0  0  0  0  0  0  0  0  0  0  0  0
   -2.7880   -6.9714   14.8334 C   0  0  0  0  0  0  0  0  0  0  0  0
   -4.2095   -2.0120   10.1035 H   0  0  0  0  0  0  0  0  0  0  0  0
   -5.6876   -2.7493    9.4618 H   0  0  0  0  0  0  0  0  0  0  0  0
   -4.1038   -3.3714    8.9675 H   0  0  0  0  0  0  0  0  0  0  0  0
   -5.1994   -4.8601   10.6547 H   0  0  0  0  0  0  0  0  0  0  0  0
   -5.3046   -3.5081   11.7843 H   0  0  0  0  0  0  0  0  0  0  0  0
   -2.7919   -3.3270   11.7908 H   0  0  0  0  0  0  0  0  0  0  0  0
   -2.6875   -4.6682   10.6700 H   0  0  0  0  0  0  0  0  0  0  0  0
   -3.7877   -6.1698   12.3270 H   0  0  0  0  0  0  0  0  0  0  0  0
   -3.8986   -4.7935   13.4776 H   0  0  0  0  0  0  0  0  0  0  0  0
    0.3263   -5.8604   13.9939 H   0  0  0  0  0  0  0  0  0  0  0  0
    0.9062   -7.2959   15.8674 H   0  0  0  0  0  0  0  0  0  0  0  0
   -0.4485   -8.5846   18.4045 H   0  0  0  0  0  0  0  0  0  0  0  0
   -1.3774  -11.5861   18.2659 H   0  0  0  0  0  0  0  0  0  0  0  0
   -1.7626  -12.3566   20.5717 H   0  0  0  0  0  0  0  0  0  0  0  0
   -3.3878  -12.5326   20.1771 H   0  0  0  0  0  0  0  0  0  0  0  0
   -1.9012  -14.4120   20.9571 H   0  0  0  0  0  0  0  0  0  0  0  0
   -1.4057  -15.1582   19.2911 H   0  0  0  0  0  0  0  0  0  0  0  0
   -1.8197  -17.5829   19.1457 H   0  0  0  0  0  0  0  0  0  0  0  0
   -3.6593  -19.3785   20.0587 H   0  0  0  0  0  0  0  0  0  0  0  0
   -4.8545  -15.6261   21.3639 H   0  0  0  0  0  0  0  0  0  0  0  0
   -4.1953   -8.7360   16.6693 H   0  0  0  0  0  0  0  0  0  0  0  0
   -3.8207   -6.9480   14.5049 H   0  0  0  0  0  0  0  0  0  0  0  0
  1  2  1  0
  2  3  1  0
  3  4  1  0
  4  5  1  0
  5  6  1  0
  6  7  2  0
  7  8  1  0
  8  9  2  0
  9 10  1  0
 10 11  2  0
 11 12  1  0
 12 13  2  0
 12 14  1  0
 14 15  1  0
 15 16  1  0
 16 17  1  0
 17 18  1  0
 18 19  2  0
 19 20  1  0
 20 21  2  0
 11 22  1  0
 22 23  1  0
 23 24  2  0
 24  6  1  0
 23  9  1  0
 21 17  1  0
  1 25  1  0
  1 26  1  0
  1 27  1  0
  2 28  1  0
  2 29  1  0
  3 30  1  0
  3 31  1  0
  4 32  1  0
  4 33  1  0
  7 34  1  0
  8 35  1  0
 10 36  1  0
 14 37  1  0
 15 38  1  0
 15 39  1  0
 16 40  1  0
 16 41  1  0
 18 42  1  0
 19 43  1  0
 21 44  1  0
 22 45  1  0
 24 46  1  0
M  END
>  <Energy>  (421) 
154.09605490811208

>  <compound_id>  (421) 
69376

>  <target_id>  (421) 
1

>  <reference_id>  (421) 
35

>  <inspiration_ids>  (421) 
[97, 35]

>  <energy_score>  (421) 
126.41986783453649

>  <distance_score>  (421) 
16.12767082930522

>  <path>  (421) 
/opt/xchem-fragalysis-2/maxwin/BulkDock/SCRATCH/511015/C69376-P35/C69376-P35.minimised.mol

>  <scratch_subdir>  (421) 
/opt/xchem-fragalysis-2/maxwin/BulkDock/SCRATCH/511015/C69376-P35

>  <fragmenstein_runtime>  (421) 
32.31260418891907

>  <fragmenstein_outcome>  (421) 
too moved

>  <fragmenstein_mode>  (421) 
expansion

>  <fragmenstein_error>  (421) 


$$$$
C69378-P97
     RDKit          3D

 36 38  0  0  0  0  0  0  0  0999 V2000
    4.0448  -13.2294   20.8086 O   0  0  0  0  0  0  0  0  0  0  0  0
    5.0685  -13.6537   21.3631 C   0  0  0  0  0  0  0  0  0  0  0  0
    4.7800  -15.0346   23.0156 N   0  0  0  0  0  0  0  0  0  0  0  0
    3.6098  -15.5457   23.6191 C   0  0  0  0  0  0  0  0  0  0  0  0
    3.3361  -17.4825   24.1666 C   0  0  0  0  0  0  0  0  0  0  0  0
    2.8941  -18.6011   25.5422 C   0  0  0  0  0  0  0  0  0  0  0  0
    3.0342  -20.0547   25.7306 N   0  0  0  0  0  0  0  0  0  0  0  0
    3.0382  -20.6294   26.9974 C   0  0  0  0  0  0  0  0  0  0  0  0
    2.4292  -21.8578   26.8748 C   0  0  0  0  0  0  0  0  0  0  0  0
    2.0507  -22.0765   25.5822 N   0  0  0  0  0  0  0  0  0  0  0  0
    2.4271  -21.0002   24.9189 C   0  0  0  0  0  0  0  0  0  0  0  0
    6.6518  -12.6937   20.6118 C   0  0  0  0  0  0  0  0  0  0  0  0
    6.3670  -11.4921   19.7163 C   0  0  0  0  0  0  0  0  0  0  0  0
    7.5732  -10.5324   18.6845 C   0  0  0  0  0  0  0  0  0  0  0  0
    8.9411  -10.7731   17.9853 C   0  0  0  0  0  0  0  0  0  0  0  0
    9.5883  -10.6651   16.7118 C   0  0  0  0  0  0  0  0  0  0  0  0
   10.7408  -11.3987   16.7966 C   0  0  0  0  0  0  0  0  0  0  0  0
   10.7146  -12.0890   17.9854 N   0  0  0  0  0  0  0  0  0  0  0  0
    9.5476  -11.7540   18.7564 C   0  0  0  0  0  0  0  0  0  0  0  0
    8.4123  -12.4565   20.1682 C   0  0  0  0  0  0  0  0  0  0  0  0
    5.6709  -15.3734   23.3299 H   0  0  0  0  0  0  0  0  0  0  0  0
    2.7861  -14.8835   23.3812 H   0  0  0  0  0  0  0  0  0  0  0  0
    4.0133  -15.1226   24.5742 H   0  0  0  0  0  0  0  0  0  0  0  0
    2.3382  -17.4304   24.4108 H   0  0  0  0  0  0  0  0  0  0  0  0
    3.3346  -18.1724   23.3410 H   0  0  0  0  0  0  0  0  0  0  0  0
    2.9511  -18.0773   26.5011 H   0  0  0  0  0  0  0  0  0  0  0  0
    1.8204  -18.7596   25.3997 H   0  0  0  0  0  0  0  0  0  0  0  0
    3.4069  -20.0926   27.8594 H   0  0  0  0  0  0  0  0  0  0  0  0
    2.2324  -22.5843   27.6517 H   0  0  0  0  0  0  0  0  0  0  0  0
    2.2451  -20.8074   23.8679 H   0  0  0  0  0  0  0  0  0  0  0  0
    5.4089  -11.6743   19.2714 H   0  0  0  0  0  0  0  0  0  0  0  0
    7.2710  -10.3561   17.6821 H   0  0  0  0  0  0  0  0  0  0  0  0
    9.2573  -10.1135   15.8418 H   0  0  0  0  0  0  0  0  0  0  0  0
   11.5371  -11.5631   16.0799 H   0  0  0  0  0  0  0  0  0  0  0  0
   11.3248  -12.8782   18.1599 H   0  0  0  0  0  0  0  0  0  0  0  0
    8.1768  -11.4972   19.9431 H   0  0  0  0  0  0  0  0  0  0  0  0
  1  2  2  0
  2  3  1  0
  3  4  1  0
  4  5  1  0
  5  6  1  0
  6  7  1  0
  7  8  1  0
  8  9  2  0
  9 10  1  0
 10 11  2  0
  2 12  1  0
 12 13  2  0
 13 14  1  0
 14 15  2  0
 15 16  1  0
 16 17  2  0
 17 18  1  0
 18 19  1  0
 19 20  2  0
 11  7  1  0
 20 12  1  0
 19 15  1  0
  3 21  1  0
  4 22  1  0
  4 23  1  0
  5 24  1  0
  5 25  1  0
  6 26  1  0
  6 27  1  0
  8 28  1  0
  9 29  1  0
 11 30  1  0
 13 31  1  0
 14 32  1  0
 16 33  1  0
 17 34  1  0
 18 35  1  0
 20 36  1  0
M  END
>  <Energy>  (422) 
950.30266041796699

>  <compound_id>  (422) 
69378

>  <target_id>  (422) 
1

>  <reference_id>  (422) 
97

>  <inspiration_ids>  (422) 
[97, 35]

>  <energy_score>  (422) 
923.1431891847308

>  <distance_score>  (422) 
12.926214075974762

>  <path>  (422) 
/opt/xchem-fragalysis-2/maxwin/BulkDock/SCRATCH/511015/C69378-P97/C69378-P97.minimised.mol

>  <scratch_subdir>  (422) 
/opt/xchem-fragalysis-2/maxwin/BulkDock/SCRATCH/511015/C69378-P97

>  <fragmenstein_runtime>  (422) 
8.646165609359741

>  <fragmenstein_outcome>  (422) 
too moved

>  <fragmenstein_mode>  (422) 
expansion

>  <fragmenstein_error>  (422) 


$$$$
C69378-P35
     RDKit          3D

 36 38  0  0  0  0  0  0  0  0999 V2000
    4.1882  -13.3221   20.7407 O   0  0  0  0  0  0  0  0  0  0  0  0
    5.2512  -13.4985   21.2707 C   0  0  0  0  0  0  0  0  0  0  0  0
    4.9849  -14.9869   22.9500 N   0  0  0  0  0  0  0  0  0  0  0  0
    3.8205  -15.6159   23.4914 C   0  0  0  0  0  0  0  0  0  0  0  0
    3.2423  -17.4823   24.0605 C   0  0  0  0  0  0  0  0  0  0  0  0
    2.6335  -18.6557   25.3485 C   0  0  0  0  0  0  0  0  0  0  0  0
    1.4130  -19.4834   25.4884 N   0  0  0  0  0  0  0  0  0  0  0  0
    0.6345  -19.5480   26.6417 C   0  0  0  0  0  0  0  0  0  0  0  0
   -0.2950  -20.5397   26.4369 C   0  0  0  0  0  0  0  0  0  0  0  0
   -0.0999  -21.1180   25.2175 N   0  0  0  0  0  0  0  0  0  0  0  0
    0.9525  -20.5085   24.6996 C   0  0  0  0  0  0  0  0  0  0  0  0
    6.6567  -12.0451   20.3765 C   0  0  0  0  0  0  0  0  0  0  0  0
    6.9698  -10.2134   20.1516 C   0  0  0  0  0  0  0  0  0  0  0  0
    6.8451   -8.0277   20.2633 C   0  0  0  0  0  0  0  0  0  0  0  0
    8.0394   -7.4326   19.9173 C   0  0  0  0  0  0  0  0  0  0  0  0
    8.8852   -6.5466   20.6714 C   0  0  0  0  0  0  0  0  0  0  0  0
    9.9217   -7.3507   21.0262 C   0  0  0  0  0  0  0  0  0  0  0  0
    9.9861   -8.4952   20.1890 N   0  0  0  0  0  0  0  0  0  0  0  0
    8.7480   -9.0845   19.2012 C   0  0  0  0  0  0  0  0  0  0  0  0
    7.9310  -10.8654   19.5358 C   0  0  0  0  0  0  0  0  0  0  0  0
    5.8652  -15.2049   23.3381 H   0  0  0  0  0  0  0  0  0  0  0  0
    3.0316  -14.9060   23.2522 H   0  0  0  0  0  0  0  0  0  0  0  0
    4.2459  -15.2601   24.4739 H   0  0  0  0  0  0  0  0  0  0  0  0
    3.9147  -17.3528   24.8709 H   0  0  0  0  0  0  0  0  0  0  0  0
    3.3616  -18.1911   23.2600 H   0  0  0  0  0  0  0  0  0  0  0  0
    3.4135  -19.4309   25.3759 H   0  0  0  0  0  0  0  0  0  0  0  0
    2.7320  -18.1252   26.3089 H   0  0  0  0  0  0  0  0  0  0  0  0
    0.8159  -18.8934   27.4825 H   0  0  0  0  0  0  0  0  0  0  0  0
   -1.0789  -20.8715   27.1046 H   0  0  0  0  0  0  0  0  0  0  0  0
    1.4182  -20.7557   23.7530 H   0  0  0  0  0  0  0  0  0  0  0  0
    6.0468  -10.6442   19.2639 H   0  0  0  0  0  0  0  0  0  0  0  0
    5.8993   -7.7306   19.6628 H   0  0  0  0  0  0  0  0  0  0  0  0
    8.5998   -5.6563   21.2173 H   0  0  0  0  0  0  0  0  0  0  0  0
   10.7330   -7.1878   21.7279 H   0  0  0  0  0  0  0  0  0  0  0  0
   10.8215   -9.0274   20.1293 H   0  0  0  0  0  0  0  0  0  0  0  0
    8.7941  -11.4658   19.1442 H   0  0  0  0  0  0  0  0  0  0  0  0
  1  2  2  0
  2  3  1  0
  3  4  1  0
  4  5  1  0
  5  6  1  0
  6  7  1  0
  7  8  1  0
  8  9  2  0
  9 10  1  0
 10 11  2  0
  2 12  1  0
 12 13  2  0
 13 14  1  0
 14 15  2  0
 15 16  1  0
 16 17  2  0
 17 18  1  0
 18 19  1  0
 19 20  2  0
 11  7  1  0
 20 12  1  0
 19 15  1  0
  3 21  1  0
  4 22  1  0
  4 23  1  0
  5 24  1  0
  5 25  1  0
  6 26  1  0
  6 27  1  0
  8 28  1  0
  9 29  1  0
 11 30  1  0
 13 31  1  0
 14 32  1  0
 16 33  1  0
 17 34  1  0
 18 35  1  0
 20 36  1  0
M  END
>  <Energy>  (423) 
1808.6503267272815

>  <compound_id>  (423) 
69378

>  <target_id>  (423) 
1

>  <reference_id>  (423) 
35

>  <inspiration_ids>  (423) 
[97, 35]

>  <energy_score>  (423) 
1781.4908554940807

>  <distance_score>  (423) 
11.866138308829434

>  <path>  (423) 
/opt/xchem-fragalysis-2/maxwin/BulkDock/SCRATCH/511015/C69378-P35/C69378-P35.minimised.mol

>  <scratch_subdir>  (423) 
/opt/xchem-fragalysis-2/maxwin/BulkDock/SCRATCH/511015/C69378-P35

>  <fragmenstein_runtime>  (423) 
18.586326360702515

>  <fragmenstein_outcome>  (423) 
too moved

>  <fragmenstein_mode>  (423) 
expansion

>  <fragmenstein_error>  (423) 


$$$$
C69379-P97
     RDKit          3D

 36 38  0  0  0  0  0  0  0  0999 V2000
   -2.6321  -14.9105   25.2867 C   0  0  0  0  0  0  0  0  0  0  0  0
   -1.4458  -13.7206   25.1599 C   0  0  0  0  0  0  0  0  0  0  0  0
   -0.2566  -13.6515   23.4163 C   0  0  0  0  0  0  0  0  0  0  0  0
    0.6237  -11.7546   22.8259 C   0  0  0  0  0  0  0  0  0  0  0  0
   -0.1642  -10.9092   22.3657 O   0  0  0  0  0  0  0  0  0  0  0  0
    2.4288  -11.5777   22.9714 N   0  0  0  0  0  0  0  0  0  0  0  0
    3.5440  -10.1040   22.6156 C   0  0  0  0  0  0  0  0  0  0  0  0
    5.0275  -10.0107   22.7320 C   0  0  0  0  0  0  0  0  0  0  0  0
    5.8512   -8.9230   22.2537 C   0  0  0  0  0  0  0  0  0  0  0  0
    5.2496   -7.8177   21.6328 C   0  0  0  0  0  0  0  0  0  0  0  0
    5.7867   -6.7896   20.8930 N   0  0  0  0  0  0  0  0  0  0  0  0
    4.8310   -5.8956   20.5056 C   0  0  0  0  0  0  0  0  0  0  0  0
    3.6237   -6.4104   20.9179 C   0  0  0  0  0  0  0  0  0  0  0  0
    3.8725   -7.6475   21.5939 C   0  0  0  0  0  0  0  0  0  0  0  0
    3.0409   -8.7233   22.0791 C   0  0  0  0  0  0  0  0  0  0  0  0
   -2.4754  -12.7910   26.0923 N   0  0  0  0  0  0  0  0  0  0  0  0
   -3.8008  -12.4494   25.8791 C   0  0  0  0  0  0  0  0  0  0  0  0
   -4.4651  -12.6444   27.0733 C   0  0  0  0  0  0  0  0  0  0  0  0
   -3.6038  -13.0043   28.0650 N   0  0  0  0  0  0  0  0  0  0  0  0
   -2.4229  -13.0197   27.4925 C   0  0  0  0  0  0  0  0  0  0  0  0
   -2.3990  -15.7051   24.6237 H   0  0  0  0  0  0  0  0  0  0  0  0
   -2.8015  -15.2678   26.3125 H   0  0  0  0  0  0  0  0  0  0  0  0
   -3.6387  -14.6210   24.9462 H   0  0  0  0  0  0  0  0  0  0  0  0
   -0.7720  -13.2970   25.9658 H   0  0  0  0  0  0  0  0  0  0  0  0
   -0.4756  -14.3554   22.6133 H   0  0  0  0  0  0  0  0  0  0  0  0
    0.6173  -14.1144   23.9293 H   0  0  0  0  0  0  0  0  0  0  0  0
    2.8275  -12.4487   23.3029 H   0  0  0  0  0  0  0  0  0  0  0  0
    5.6310  -10.7637   23.2162 H   0  0  0  0  0  0  0  0  0  0  0  0
    6.9330   -9.0084   22.3123 H   0  0  0  0  0  0  0  0  0  0  0  0
    6.7500   -6.7623   20.5957 H   0  0  0  0  0  0  0  0  0  0  0  0
    5.0788   -5.0104   19.9368 H   0  0  0  0  0  0  0  0  0  0  0  0
    2.6485   -5.9892   20.7091 H   0  0  0  0  0  0  0  0  0  0  0  0
    1.9828   -8.5995   21.8275 H   0  0  0  0  0  0  0  0  0  0  0  0
   -4.1919  -12.1772   24.9140 H   0  0  0  0  0  0  0  0  0  0  0  0
   -5.5249  -12.5277   27.2596 H   0  0  0  0  0  0  0  0  0  0  0  0
   -1.4942  -13.2870   27.9808 H   0  0  0  0  0  0  0  0  0  0  0  0
  1  2  1  0
  2  3  1  0
  3  4  1  0
  4  5  2  0
  4  6  1  0
  6  7  1  0
  7  8  2  0
  8  9  1  0
  9 10  2  0
 10 11  1  0
 11 12  1  0
 12 13  2  0
 13 14  1  0
 14 15  2  0
  2 16  1  0
 16 17  1  0
 17 18  2  0
 18 19  1  0
 19 20  2  0
 15  7  1  0
 20 16  1  0
 14 10  1  0
  1 21  1  0
  1 22  1  0
  1 23  1  0
  2 24  1  0
  3 25  1  0
  3 26  1  0
  6 27  1  0
  8 28  1  0
  9 29  1  0
 11 30  1  0
 12 31  1  0
 13 32  1  0
 15 33  1  0
 17 34  1  0
 18 35  1  0
 20 36  1  0
M  END
>  <Energy>  (424) 
433.38454876305929

>  <compound_id>  (424) 
69379

>  <target_id>  (424) 
1

>  <reference_id>  (424) 
97

>  <inspiration_ids>  (424) 
[97, 35]

>  <energy_score>  (424) 
413.5532521605777

>  <distance_score>  (424) 
14.250855484081512

>  <path>  (424) 
/opt/xchem-fragalysis-2/maxwin/BulkDock/SCRATCH/511015/C69379-P97/C69379-P97.minimised.mol

>  <scratch_subdir>  (424) 
/opt/xchem-fragalysis-2/maxwin/BulkDock/SCRATCH/511015/C69379-P97

>  <fragmenstein_runtime>  (424) 
9.317984580993652

>  <fragmenstein_outcome>  (424) 
too moved

>  <fragmenstein_mode>  (424) 
expansion

>  <fragmenstein_error>  (424) 


$$$$
C69379-P35
     RDKit          3D

 36 38  0  0  0  0  0  0  0  0999 V2000
   -0.5514  -20.4221   15.8205 C   0  0  0  0  0  0  0  0  0  0  0  0
   -1.0682  -19.0451   16.3016 C   0  0  0  0  0  0  0  0  0  0  0  0
   -1.0636  -18.0630   14.9807 C   0  0  0  0  0  0  0  0  0  0  0  0
   -0.4252  -16.5305   14.7917 C   0  0  0  0  0  0  0  0  0  0  0  0
   -1.2439  -15.6454   14.7647 O   0  0  0  0  0  0  0  0  0  0  0  0
    1.0540  -16.4797   14.6877 N   0  0  0  0  0  0  0  0  0  0  0  0
    1.9769  -15.3365   14.6184 C   0  0  0  0  0  0  0  0  0  0  0  0
    3.3605  -15.6017   14.5934 C   0  0  0  0  0  0  0  0  0  0  0  0
    4.3716  -14.5963   14.5633 C   0  0  0  0  0  0  0  0  0  0  0  0
    3.9835  -13.2530   14.5454 C   0  0  0  0  0  0  0  0  0  0  0  0
    4.7363  -12.0922   14.4945 N   0  0  0  0  0  0  0  0  0  0  0  0
    3.9116  -10.9986   14.4820 C   0  0  0  0  0  0  0  0  0  0  0  0
    2.6124  -11.4645   14.5201 C   0  0  0  0  0  0  0  0  0  0  0  0
    2.6335  -12.9012   14.5651 C   0  0  0  0  0  0  0  0  0  0  0  0
    1.6350  -13.9582   14.6122 C   0  0  0  0  0  0  0  0  0  0  0  0
   -2.2761  -19.2333   17.1603 N   0  0  0  0  0  0  0  0  0  0  0  0
   -2.4880  -18.6799   18.4108 C   0  0  0  0  0  0  0  0  0  0  0  0
   -3.5110  -19.3931   18.9986 C   0  0  0  0  0  0  0  0  0  0  0  0
   -3.9560  -20.3685   18.1569 N   0  0  0  0  0  0  0  0  0  0  0  0
   -3.2177  -20.2439   17.0708 C   0  0  0  0  0  0  0  0  0  0  0  0
   -1.1939  -20.8343   15.0345 H   0  0  0  0  0  0  0  0  0  0  0  0
    0.4604  -20.3284   15.4102 H   0  0  0  0  0  0  0  0  0  0  0  0
   -0.5100  -21.1527   16.6344 H   0  0  0  0  0  0  0  0  0  0  0  0
   -0.2919  -18.6962   16.9836 H   0  0  0  0  0  0  0  0  0  0  0  0
   -2.1157  -17.9614   14.6784 H   0  0  0  0  0  0  0  0  0  0  0  0
   -0.5843  -18.6149   14.1592 H   0  0  0  0  0  0  0  0  0  0  0  0
    1.4177  -17.4237   14.6663 H   0  0  0  0  0  0  0  0  0  0  0  0
    3.6974  -16.6375   14.6007 H   0  0  0  0  0  0  0  0  0  0  0  0
    5.4200  -14.8791   14.5440 H   0  0  0  0  0  0  0  0  0  0  0  0
    5.7467  -12.0614   14.4547 H   0  0  0  0  0  0  0  0  0  0  0  0
    4.3145   -9.9958   14.4344 H   0  0  0  0  0  0  0  0  0  0  0  0
    1.7262  -10.8432   14.5060 H   0  0  0  0  0  0  0  0  0  0  0  0
    0.5846  -13.6729   14.6299 H   0  0  0  0  0  0  0  0  0  0  0  0
   -1.8805  -17.8730   18.7932 H   0  0  0  0  0  0  0  0  0  0  0  0
   -3.9383  -19.2521   19.9819 H   0  0  0  0  0  0  0  0  0  0  0  0
   -3.2995  -20.8763   16.1970 H   0  0  0  0  0  0  0  0  0  0  0  0
  1  2  1  0
  2  3  1  0
  3  4  1  0
  4  5  2  0
  4  6  1  0
  6  7  1  0
  7  8  2  0
  8  9  1  0
  9 10  2  0
 10 11  1  0
 11 12  1  0
 12 13  2  0
 13 14  1  0
 14 15  2  0
  2 16  1  0
 16 17  1  0
 17 18  2  0
 18 19  1  0
 19 20  2  0
 15  7  1  0
 20 16  1  0
 14 10  1  0
  1 21  1  0
  1 22  1  0
  1 23  1  0
  2 24  1  0
  3 25  1  0
  3 26  1  0
  6 27  1  0
  8 28  1  0
  9 29  1  0
 11 30  1  0
 12 31  1  0
 13 32  1  0
 15 33  1  0
 17 34  1  0
 18 35  1  0
 20 36  1  0
M  END
>  <Energy>  (425) 
37.964597070382773

>  <compound_id>  (425) 
69379

>  <target_id>  (425) 
1

>  <reference_id>  (425) 
35

>  <inspiration_ids>  (425) 
[97, 35]

>  <energy_score>  (425) 
18.133300467902245

>  <distance_score>  (425) 
16.25644971564519

>  <path>  (425) 
/opt/xchem-fragalysis-2/maxwin/BulkDock/SCRATCH/511015/C69379-P35/C69379-P35.minimised.mol

>  <scratch_subdir>  (425) 
/opt/xchem-fragalysis-2/maxwin/BulkDock/SCRATCH/511015/C69379-P35

>  <fragmenstein_runtime>  (425) 
21.67764115333557

>  <fragmenstein_outcome>  (425) 
too moved

>  <fragmenstein_mode>  (425) 
expansion

>  <fragmenstein_error>  (425) 


$$$$
C69380-P97
     RDKit          3D

 36 38  0  0  0  0  0  0  0  0999 V2000
    4.4042  -12.9443   19.7125 O   0  0  0  0  0  0  0  0  0  0  0  0
    4.2004  -13.7900   18.8793 C   0  0  0  0  0  0  0  0  0  0  0  0
    2.5063  -14.8053   19.0503 C   0  0  0  0  0  0  0  0  0  0  0  0
    1.2510  -15.7786   20.3615 C   0  0  0  0  0  0  0  0  0  0  0  0
    0.0468  -16.9381   21.0733 C   0  0  0  0  0  0  0  0  0  0  0  0
   -0.1512  -18.2250   21.9974 N   0  0  0  0  0  0  0  0  0  0  0  0
   -1.3354  -18.7007   21.8183 C   0  0  0  0  0  0  0  0  0  0  0  0
   -1.7365  -19.9529   22.9569 C   0  0  0  0  0  0  0  0  0  0  0  0
   -0.6681  -20.4823   23.4342 N   0  0  0  0  0  0  0  0  0  0  0  0
    0.0067  -19.2274   23.5022 C   0  0  0  0  0  0  0  0  0  0  0  0
    4.9646  -14.1505   17.6926 N   0  0  0  0  0  0  0  0  0  0  0  0
    6.1226  -13.5550   17.1094 C   0  0  0  0  0  0  0  0  0  0  0  0
    6.2972  -13.6597   15.7248 C   0  0  0  0  0  0  0  0  0  0  0  0
    7.2878  -12.9406   15.0272 C   0  0  0  0  0  0  0  0  0  0  0  0
    8.1872  -12.1798   15.7728 C   0  0  0  0  0  0  0  0  0  0  0  0
    9.2656  -11.4281   15.3648 N   0  0  0  0  0  0  0  0  0  0  0  0
    9.9779  -11.0192   16.4557 C   0  0  0  0  0  0  0  0  0  0  0  0
    9.2508  -11.3602   17.5783 C   0  0  0  0  0  0  0  0  0  0  0  0
    8.1031  -12.0909   17.1610 C   0  0  0  0  0  0  0  0  0  0  0  0
    7.0159  -12.7309   17.8263 C   0  0  0  0  0  0  0  0  0  0  0  0
    2.9277  -15.5720   18.4339 H   0  0  0  0  0  0  0  0  0  0  0  0
    2.5538  -14.3299   20.0132 H   0  0  0  0  0  0  0  0  0  0  0  0
    0.6227  -16.0038   19.5383 H   0  0  0  0  0  0  0  0  0  0  0  0
    1.1440  -15.0207   21.0402 H   0  0  0  0  0  0  0  0  0  0  0  0
   -0.7824  -16.9577   20.3519 H   0  0  0  0  0  0  0  0  0  0  0  0
   -0.3037  -16.1910   21.7436 H   0  0  0  0  0  0  0  0  0  0  0  0
   -1.8598  -18.3218   20.9089 H   0  0  0  0  0  0  0  0  0  0  0  0
   -2.6041  -20.6227   22.9736 H   0  0  0  0  0  0  0  0  0  0  0  0
    0.6849  -18.9724   24.3400 H   0  0  0  0  0  0  0  0  0  0  0  0
    4.4555  -14.8525   17.1742 H   0  0  0  0  0  0  0  0  0  0  0  0
    5.5979  -14.2545   15.1403 H   0  0  0  0  0  0  0  0  0  0  0  0
    7.3615  -13.0065   13.9466 H   0  0  0  0  0  0  0  0  0  0  0  0
    9.5153  -11.2532   14.4003 H   0  0  0  0  0  0  0  0  0  0  0  0
   10.9194  -10.5005   16.3321 H   0  0  0  0  0  0  0  0  0  0  0  0
    9.5286  -11.1535   18.6024 H   0  0  0  0  0  0  0  0  0  0  0  0
    6.9005  -12.6158   18.9006 H   0  0  0  0  0  0  0  0  0  0  0  0
  1  2  2  0
  2  3  1  0
  3  4  1  0
  4  5  1  0
  5  6  1  0
  6  7  1  0
  7  8  2  0
  8  9  1  0
  9 10  2  0
  2 11  1  0
 11 12  1  0
 12 13  2  0
 13 14  1  0
 14 15  2  0
 15 16  1  0
 16 17  1  0
 17 18  2  0
 18 19  1  0
 19 20  2  0
 10  6  1  0
 20 12  1  0
 19 15  1  0
  3 21  1  0
  3 22  1  0
  4 23  1  0
  4 24  1  0
  5 25  1  0
  5 26  1  0
  7 27  1  0
  8 28  1  0
 10 29  1  0
 11 30  1  0
 13 31  1  0
 14 32  1  0
 16 33  1  0
 17 34  1  0
 18 35  1  0
 20 36  1  0
M  END
>  <Energy>  (426) 
503.04330396850838

>  <compound_id>  (426) 
69380

>  <target_id>  (426) 
1

>  <reference_id>  (426) 
97

>  <inspiration_ids>  (426) 
[97, 35]

>  <energy_score>  (426) 
474.1118316883326

>  <distance_score>  (426) 
13.494412957660254

>  <path>  (426) 
/opt/xchem-fragalysis-2/maxwin/BulkDock/SCRATCH/511015/C69380-P97/C69380-P97.minimised.mol

>  <scratch_subdir>  (426) 
/opt/xchem-fragalysis-2/maxwin/BulkDock/SCRATCH/511015/C69380-P97

>  <fragmenstein_runtime>  (426) 
10.460509300231934

>  <fragmenstein_outcome>  (426) 
too moved

>  <fragmenstein_mode>  (426) 
expansion

>  <fragmenstein_error>  (426) 


$$$$
C69380-P35
     RDKit          3D

 36 38  0  0  0  0  0  0  0  0999 V2000
    4.0244  -11.3847   22.5549 O   0  0  0  0  0  0  0  0  0  0  0  0
    3.0926  -10.8112   23.1165 C   0  0  0  0  0  0  0  0  0  0  0  0
    1.9603  -12.2486   24.3480 C   0  0  0  0  0  0  0  0  0  0  0  0
    1.0275  -13.3039   26.1064 C   0  0  0  0  0  0  0  0  0  0  0  0
   -0.2174  -14.5502   27.5199 C   0  0  0  0  0  0  0  0  0  0  0  0
   -0.9275  -16.1291   28.3799 N   0  0  0  0  0  0  0  0  0  0  0  0
   -1.2428  -17.4104   27.9038 C   0  0  0  0  0  0  0  0  0  0  0  0
   -2.0198  -18.0387   28.8517 C   0  0  0  0  0  0  0  0  0  0  0  0
   -2.2241  -17.2267   29.9200 N   0  0  0  0  0  0  0  0  0  0  0  0
   -1.6250  -16.0959   29.6124 C   0  0  0  0  0  0  0  0  0  0  0  0
    2.9135   -8.8215   22.9928 N   0  0  0  0  0  0  0  0  0  0  0  0
    3.8716   -7.6975   22.3684 C   0  0  0  0  0  0  0  0  0  0  0  0
    5.2439   -7.6665   22.7584 C   0  0  0  0  0  0  0  0  0  0  0  0
    6.0575   -6.5411   22.5798 C   0  0  0  0  0  0  0  0  0  0  0  0
    5.4941   -5.4192   21.9724 C   0  0  0  0  0  0  0  0  0  0  0  0
    6.0457   -4.1946   21.6752 N   0  0  0  0  0  0  0  0  0  0  0  0
    5.0895   -3.3579   21.1672 C   0  0  0  0  0  0  0  0  0  0  0  0
    3.9185   -4.0701   21.0722 C   0  0  0  0  0  0  0  0  0  0  0  0
    4.1473   -5.3659   21.6169 C   0  0  0  0  0  0  0  0  0  0  0  0
    3.3144   -6.4823   21.9016 C   0  0  0  0  0  0  0  0  0  0  0  0
    1.3045  -11.8848   23.5537 H   0  0  0  0  0  0  0  0  0  0  0  0
    1.7654  -11.5422   25.0872 H   0  0  0  0  0  0  0  0  0  0  0  0
    0.9302  -12.3716   26.6841 H   0  0  0  0  0  0  0  0  0  0  0  0
    1.9579  -13.7042   26.4901 H   0  0  0  0  0  0  0  0  0  0  0  0
   -1.1107  -14.3561   28.2326 H   0  0  0  0  0  0  0  0  0  0  0  0
   -1.4470  -14.8550   26.9663 H   0  0  0  0  0  0  0  0  0  0  0  0
   -0.9325  -17.7926   26.9447 H   0  0  0  0  0  0  0  0  0  0  0  0
   -2.4508  -19.0296   28.7970 H   0  0  0  0  0  0  0  0  0  0  0  0
   -1.6533  -15.2105   30.2321 H   0  0  0  0  0  0  0  0  0  0  0  0
    2.0543   -8.5362   23.4286 H   0  0  0  0  0  0  0  0  0  0  0  0
    5.6775   -8.5351   23.2526 H   0  0  0  0  0  0  0  0  0  0  0  0
    7.0715   -6.5464   22.9578 H   0  0  0  0  0  0  0  0  0  0  0  0
    7.0079   -3.9478   21.8540 H   0  0  0  0  0  0  0  0  0  0  0  0
    5.3174   -2.3339   20.9056 H   0  0  0  0  0  0  0  0  0  0  0  0
    2.9764   -3.6868   20.7024 H   0  0  0  0  0  0  0  0  0  0  0  0
    2.2476   -6.4227   21.7042 H   0  0  0  0  0  0  0  0  0  0  0  0
  1  2  2  0
  2  3  1  0
  3  4  1  0
  4  5  1  0
  5  6  1  0
  6  7  1  0
  7  8  2  0
  8  9  1  0
  9 10  2  0
  2 11  1  0
 11 12  1  0
 12 13  2  0
 13 14  1  0
 14 15  2  0
 15 16  1  0
 16 17  1  0
 17 18  2  0
 18 19  1  0
 19 20  2  0
 10  6  1  0
 20 12  1  0
 19 15  1  0
  3 21  1  0
  3 22  1  0
  4 23  1  0
  4 24  1  0
  5 25  1  0
  5 26  1  0
  7 27  1  0
  8 28  1  0
 10 29  1  0
 11 30  1  0
 13 31  1  0
 14 32  1  0
 16 33  1  0
 17 34  1  0
 18 35  1  0
 20 36  1  0
M  END
>  <Energy>  (427) 
948.04431282725773

>  <compound_id>  (427) 
69380

>  <target_id>  (427) 
1

>  <reference_id>  (427) 
35

>  <inspiration_ids>  (427) 
[97, 35]

>  <energy_score>  (427) 
919.1128405470779

>  <distance_score>  (427) 
12.627065438871831

>  <path>  (427) 
/opt/xchem-fragalysis-2/maxwin/BulkDock/SCRATCH/511015/C69380-P35/C69380-P35.minimised.mol

>  <scratch_subdir>  (427) 
/opt/xchem-fragalysis-2/maxwin/BulkDock/SCRATCH/511015/C69380-P35

>  <fragmenstein_runtime>  (427) 
15.284651517868042

>  <fragmenstein_outcome>  (427) 
too moved

>  <fragmenstein_mode>  (427) 
expansion

>  <fragmenstein_error>  (427) 


$$$$
C69381-P97
     RDKit          3D

 45 47  0  0  0  0  0  0  0  0999 V2000
   12.3964   -4.6266   18.1635 C   0  0  0  0  0  0  0  0  0  0  0  0
   10.6955   -5.1189   17.8717 C   0  0  0  0  0  0  0  0  0  0  0  0
    9.2526   -5.2060   19.4950 C   0  0  0  0  0  0  0  0  0  0  0  0
    7.2214   -5.2026   19.9303 N   0  0  0  0  0  0  0  0  0  0  0  0
    6.6845   -4.6822   21.2609 C   0  0  0  0  0  0  0  0  0  0  0  0
    5.6181   -5.3480   21.9354 C   0  0  0  0  0  0  0  0  0  0  0  0
    4.8555   -6.3795   21.2210 C   0  0  0  0  0  0  0  0  0  0  0  0
    3.2762   -7.2588   21.5527 C   0  0  0  0  0  0  0  0  0  0  0  0
    2.0432   -8.0526   20.8014 C   0  0  0  0  0  0  0  0  0  0  0  0
    0.4902   -9.1242   20.4636 N   0  0  0  0  0  0  0  0  0  0  0  0
   -0.3031  -10.6070   21.4027 C   0  0  0  0  0  0  0  0  0  0  0  0
    0.1886  -10.8607   22.4320 O   0  0  0  0  0  0  0  0  0  0  0  0
   -1.7740  -12.1156   20.9458 C   0  0  0  0  0  0  0  0  0  0  0  0
   -2.1727  -14.2517   21.3868 C   0  0  0  0  0  0  0  0  0  0  0  0
   -0.8314  -14.7790   22.3726 C   0  0  0  0  0  0  0  0  0  0  0  0
   -3.2305  -15.0961   23.0165 N   0  0  0  0  0  0  0  0  0  0  0  0
   -4.7012  -15.9347   22.2193 C   0  0  0  0  0  0  0  0  0  0  0  0
   -5.8173  -15.5205   22.9694 C   0  0  0  0  0  0  0  0  0  0  0  0
   -5.4115  -14.8766   24.1548 N   0  0  0  0  0  0  0  0  0  0  0  0
   -4.1070  -14.6426   24.2408 C   0  0  0  0  0  0  0  0  0  0  0  0
    2.9491   -7.6702   19.5001 C   0  0  0  0  0  0  0  0  0  0  0  0
    4.5403   -6.9426   19.0660 C   0  0  0  0  0  0  0  0  0  0  0  0
    5.7528   -6.2984   19.9219 C   0  0  0  0  0  0  0  0  0  0  0  0
   12.9935   -5.0552   17.3523 H   0  0  0  0  0  0  0  0  0  0  0  0
   12.7552   -4.9804   19.1365 H   0  0  0  0  0  0  0  0  0  0  0  0
   12.5164   -3.5452   18.0672 H   0  0  0  0  0  0  0  0  0  0  0  0
   10.5862   -4.3402   17.0645 H   0  0  0  0  0  0  0  0  0  0  0  0
   10.9206   -5.8697   17.0703 H   0  0  0  0  0  0  0  0  0  0  0  0
    9.8627   -5.2573   20.3347 H   0  0  0  0  0  0  0  0  0  0  0  0
    9.3584   -6.2063   19.2229 H   0  0  0  0  0  0  0  0  0  0  0  0
    7.1539   -3.7800   21.6039 H   0  0  0  0  0  0  0  0  0  0  0  0
    5.2803   -4.9837   22.8989 H   0  0  0  0  0  0  0  0  0  0  0  0
    3.0838   -7.1141   22.6250 H   0  0  0  0  0  0  0  0  0  0  0  0
    0.0475   -9.0484   19.5548 H   0  0  0  0  0  0  0  0  0  0  0  0
   -1.7398  -12.1260   19.8464 H   0  0  0  0  0  0  0  0  0  0  0  0
   -2.7086  -11.5513   21.0530 H   0  0  0  0  0  0  0  0  0  0  0  0
   -2.2954  -14.9816   20.5527 H   0  0  0  0  0  0  0  0  0  0  0  0
   -0.1540  -14.0160   22.6213 H   0  0  0  0  0  0  0  0  0  0  0  0
   -0.3286  -15.6715   21.9080 H   0  0  0  0  0  0  0  0  0  0  0  0
   -1.2198  -14.8941   23.4069 H   0  0  0  0  0  0  0  0  0  0  0  0
   -4.3994  -16.4738   21.3223 H   0  0  0  0  0  0  0  0  0  0  0  0
   -6.8608  -15.7384   22.7848 H   0  0  0  0  0  0  0  0  0  0  0  0
   -3.6000  -14.2739   25.1269 H   0  0  0  0  0  0  0  0  0  0  0  0
    2.4695   -8.0195   18.5658 H   0  0  0  0  0  0  0  0  0  0  0  0
    4.6873   -6.9025   17.9792 H   0  0  0  0  0  0  0  0  0  0  0  0
  1  2  1  0
  2  3  1  0
  3  4  1  0
  4  5  1  0
  5  6  2  0
  6  7  1  0
  7  8  2  0
  8  9  1  0
  9 10  1  0
 10 11  1  0
 11 12  2  0
 11 13  1  0
 13 14  1  0
 14 15  1  0
 14 16  1  0
 16 17  1  0
 17 18  2  0
 18 19  1  0
 19 20  2  0
  9 21  2  0
 21 22  1  0
 22 23  2  0
 23  4  1  0
 23  7  1  0
 20 16  1  0
  1 24  1  0
  1 25  1  0
  1 26  1  0
  2 27  1  0
  2 28  1  0
  3 29  1  0
  3 30  1  0
  5 31  1  0
  6 32  1  0
  8 33  1  0
 10 34  1  0
 13 35  1  0
 13 36  1  0
 14 37  1  0
 15 38  1  0
 15 39  1  0
 15 40  1  0
 17 41  1  0
 18 42  1  0
 20 43  1  0
 21 44  1  0
 22 45  1  0
M  END
>  <Energy>  (428) 
1442.875777084919

>  <compound_id>  (428) 
69381

>  <target_id>  (428) 
1

>  <reference_id>  (428) 
97

>  <inspiration_ids>  (428) 
[97, 35]

>  <energy_score>  (428) 
1412.09409262826

>  <distance_score>  (428) 
13.457275357951149

>  <path>  (428) 
/opt/xchem-fragalysis-2/maxwin/BulkDock/SCRATCH/511015/C69381-P97/C69381-P97.minimised.mol

>  <scratch_subdir>  (428) 
/opt/xchem-fragalysis-2/maxwin/BulkDock/SCRATCH/511015/C69381-P97

>  <fragmenstein_runtime>  (428) 
19.497790336608887

>  <fragmenstein_outcome>  (428) 
too moved

>  <fragmenstein_mode>  (428) 
expansion

>  <fragmenstein_error>  (428) 


$$$$
C69381-P35
     RDKit          3D

 45 47  0  0  0  0  0  0  0  0999 V2000
   10.2957  -10.1827   21.2972 C   0  0  0  0  0  0  0  0  0  0  0  0
    8.8168  -10.1298   20.9399 C   0  0  0  0  0  0  0  0  0  0  0  0
    8.4050  -11.4026   20.2394 C   0  0  0  0  0  0  0  0  0  0  0  0
    7.0033  -11.5362   19.8834 N   0  0  0  0  0  0  0  0  0  0  0  0
    6.6652  -12.2885   18.7836 C   0  0  0  0  0  0  0  0  0  0  0  0
    5.5100  -12.9747   19.0939 C   0  0  0  0  0  0  0  0  0  0  0  0
    5.0252  -12.5486   20.3885 C   0  0  0  0  0  0  0  0  0  0  0  0
    3.7149  -12.9299   21.3649 C   0  0  0  0  0  0  0  0  0  0  0  0
    3.1671  -12.3954   22.6856 C   0  0  0  0  0  0  0  0  0  0  0  0
    1.8442  -13.0036   23.9290 N   0  0  0  0  0  0  0  0  0  0  0  0
    0.1471  -13.9227   23.6581 C   0  0  0  0  0  0  0  0  0  0  0  0
   -0.1947  -14.2897   22.5599 O   0  0  0  0  0  0  0  0  0  0  0  0
   -1.3534  -14.2510   24.9877 C   0  0  0  0  0  0  0  0  0  0  0  0
   -2.8548  -14.9736   25.9022 C   0  0  0  0  0  0  0  0  0  0  0  0
   -2.9598  -16.4346   26.5025 C   0  0  0  0  0  0  0  0  0  0  0  0
   -4.2538  -14.4603   25.9830 N   0  0  0  0  0  0  0  0  0  0  0  0
   -5.2766  -14.6667   25.0978 C   0  0  0  0  0  0  0  0  0  0  0  0
   -6.4082  -14.9065   25.8496 C   0  0  0  0  0  0  0  0  0  0  0  0
   -6.1541  -14.7338   27.1774 N   0  0  0  0  0  0  0  0  0  0  0  0
   -4.8905  -14.3831   27.2305 C   0  0  0  0  0  0  0  0  0  0  0  0
    4.1040  -11.0540   22.4820 C   0  0  0  0  0  0  0  0  0  0  0  0
    5.4730  -10.6143   21.7696 C   0  0  0  0  0  0  0  0  0  0  0  0
    5.9160  -11.4717   20.7334 C   0  0  0  0  0  0  0  0  0  0  0  0
   10.4899  -10.9749   22.0279 H   0  0  0  0  0  0  0  0  0  0  0  0
   10.6276   -9.2361   21.7320 H   0  0  0  0  0  0  0  0  0  0  0  0
   10.9039  -10.3863   20.4112 H   0  0  0  0  0  0  0  0  0  0  0  0
    8.6174   -9.2801   20.2803 H   0  0  0  0  0  0  0  0  0  0  0  0
    8.2407   -9.9923   21.8590 H   0  0  0  0  0  0  0  0  0  0  0  0
    8.9874  -11.5034   19.3143 H   0  0  0  0  0  0  0  0  0  0  0  0
    8.6430  -12.2734   20.8625 H   0  0  0  0  0  0  0  0  0  0  0  0
    7.3189  -12.3753   17.9260 H   0  0  0  0  0  0  0  0  0  0  0  0
    5.0345  -13.7044   18.4536 H   0  0  0  0  0  0  0  0  0  0  0  0
    3.1767  -13.7769   20.9885 H   0  0  0  0  0  0  0  0  0  0  0  0
    1.9100  -12.7014   24.8977 H   0  0  0  0  0  0  0  0  0  0  0  0
   -1.7597  -13.2699   25.2271 H   0  0  0  0  0  0  0  0  0  0  0  0
   -1.6455  -15.0959   24.3269 H   0  0  0  0  0  0  0  0  0  0  0  0
   -2.5411  -14.5234   26.8449 H   0  0  0  0  0  0  0  0  0  0  0  0
   -3.9750  -16.7381   26.7843 H   0  0  0  0  0  0  0  0  0  0  0  0
   -2.4397  -16.4416   27.4480 H   0  0  0  0  0  0  0  0  0  0  0  0
   -2.5309  -17.2401   25.9051 H   0  0  0  0  0  0  0  0  0  0  0  0
   -5.1448  -14.6785   24.0318 H   0  0  0  0  0  0  0  0  0  0  0  0
   -7.3960  -15.1656   25.4904 H   0  0  0  0  0  0  0  0  0  0  0  0
   -4.3426  -14.1698   28.1402 H   0  0  0  0  0  0  0  0  0  0  0  0
    3.6863  -10.1041   22.8324 H   0  0  0  0  0  0  0  0  0  0  0  0
    5.9065   -9.6406   21.9644 H   0  0  0  0  0  0  0  0  0  0  0  0
  1  2  1  0
  2  3  1  0
  3  4  1  0
  4  5  1  0
  5  6  2  0
  6  7  1  0
  7  8  2  0
  8  9  1  0
  9 10  1  0
 10 11  1  0
 11 12  2  0
 11 13  1  0
 13 14  1  0
 14 15  1  0
 14 16  1  0
 16 17  1  0
 17 18  2  0
 18 19  1  0
 19 20  2  0
  9 21  2  0
 21 22  1  0
 22 23  2  0
 23  4  1  0
 23  7  1  0
 20 16  1  0
  1 24  1  0
  1 25  1  0
  1 26  1  0
  2 27  1  0
  2 28  1  0
  3 29  1  0
  3 30  1  0
  5 31  1  0
  6 32  1  0
  8 33  1  0
 10 34  1  0
 13 35  1  0
 13 36  1  0
 14 37  1  0
 15 38  1  0
 15 39  1  0
 15 40  1  0
 17 41  1  0
 18 42  1  0
 20 43  1  0
 21 44  1  0
 22 45  1  0
M  END
>  <Energy>  (429) 
530.72308560187048

>  <compound_id>  (429) 
69381

>  <target_id>  (429) 
1

>  <reference_id>  (429) 
35

>  <inspiration_ids>  (429) 
[97, 35]

>  <energy_score>  (429) 
499.9414011451946

>  <distance_score>  (429) 
14.32696860250037

>  <path>  (429) 
/opt/xchem-fragalysis-2/maxwin/BulkDock/SCRATCH/511015/C69381-P35/C69381-P35.minimised.mol

>  <scratch_subdir>  (429) 
/opt/xchem-fragalysis-2/maxwin/BulkDock/SCRATCH/511015/C69381-P35

>  <fragmenstein_runtime>  (429) 
22.41649866104126

>  <fragmenstein_outcome>  (429) 
too moved

>  <fragmenstein_mode>  (429) 
expansion

>  <fragmenstein_error>  (429) 


$$$$
C69382-P97
     RDKit          3D

 42 44  0  0  0  0  0  0  0  0999 V2000
    7.3109  -20.9429   18.9226 C   0  0  0  0  0  0  0  0  0  0  0  0
    7.4040  -20.1108   20.1954 C   0  0  0  0  0  0  0  0  0  0  0  0
    6.2029  -19.1725   20.4232 C   0  0  0  0  0  0  0  0  0  0  0  0
    6.1973  -18.0100   19.3019 C   0  0  0  0  0  0  0  0  0  0  0  0
    5.4435  -18.1190   18.3703 O   0  0  0  0  0  0  0  0  0  0  0  0
    7.2374  -16.9689   19.5978 N   0  0  0  0  0  0  0  0  0  0  0  0
    7.5752  -15.7450   18.9049 C   0  0  0  0  0  0  0  0  0  0  0  0
    6.9631  -15.3438   17.7181 C   0  0  0  0  0  0  0  0  0  0  0  0
    7.3563  -14.1795   17.0032 C   0  0  0  0  0  0  0  0  0  0  0  0
    8.4174  -13.3973   17.4887 C   0  0  0  0  0  0  0  0  0  0  0  0
    9.0396  -13.7172   18.6979 C   0  0  0  0  0  0  0  0  0  0  0  0
   10.0585  -12.7320   18.9040 C   0  0  0  0  0  0  0  0  0  0  0  0
   10.0799  -11.9049   17.8034 C   0  0  0  0  0  0  0  0  0  0  0  0
    9.0785  -12.3055   16.9566 N   0  0  0  0  0  0  0  0  0  0  0  0
    8.8381  -11.7132   15.6524 C   0  0  0  0  0  0  0  0  0  0  0  0
    9.4418  -12.5215   14.5170 C   0  0  0  0  0  0  0  0  0  0  0  0
    8.6008  -14.8916   19.4037 C   0  0  0  0  0  0  0  0  0  0  0  0
    4.9518  -19.9727   20.7337 N   0  0  0  0  0  0  0  0  0  0  0  0
    4.6678  -20.5523   21.9642 C   0  0  0  0  0  0  0  0  0  0  0  0
    3.4347  -21.1525   21.8480 C   0  0  0  0  0  0  0  0  0  0  0  0
    3.0028  -21.0718   20.5560 N   0  0  0  0  0  0  0  0  0  0  0  0
    3.9390  -20.3990   19.9111 C   0  0  0  0  0  0  0  0  0  0  0  0
    6.4530  -21.6207   18.9466 H   0  0  0  0  0  0  0  0  0  0  0  0
    8.2118  -21.5554   18.8122 H   0  0  0  0  0  0  0  0  0  0  0  0
    7.2288  -20.3099   18.0342 H   0  0  0  0  0  0  0  0  0  0  0  0
    8.3260  -19.5187   20.1496 H   0  0  0  0  0  0  0  0  0  0  0  0
    7.5133  -20.7902   21.0497 H   0  0  0  0  0  0  0  0  0  0  0  0
    6.3742  -18.6493   21.3733 H   0  0  0  0  0  0  0  0  0  0  0  0
    7.6317  -17.1428   20.5119 H   0  0  0  0  0  0  0  0  0  0  0  0
    6.1590  -15.9450   17.2958 H   0  0  0  0  0  0  0  0  0  0  0  0
    6.8609  -13.9376   16.0671 H   0  0  0  0  0  0  0  0  0  0  0  0
   10.7463  -12.6864   19.7375 H   0  0  0  0  0  0  0  0  0  0  0  0
   10.7434  -11.1008   17.5256 H   0  0  0  0  0  0  0  0  0  0  0  0
    9.2898  -10.7182   15.6710 H   0  0  0  0  0  0  0  0  0  0  0  0
    7.7565  -11.5957   15.5303 H   0  0  0  0  0  0  0  0  0  0  0  0
    9.0044  -13.5233   14.4609 H   0  0  0  0  0  0  0  0  0  0  0  0
    9.2660  -12.0199   13.5603 H   0  0  0  0  0  0  0  0  0  0  0  0
   10.5230  -12.6367   14.6482 H   0  0  0  0  0  0  0  0  0  0  0  0
    9.1180  -15.1491   20.3231 H   0  0  0  0  0  0  0  0  0  0  0  0
    5.3361  -20.4562   22.8062 H   0  0  0  0  0  0  0  0  0  0  0  0
    2.8543  -21.6498   22.6135 H   0  0  0  0  0  0  0  0  0  0  0  0
    3.9228  -20.1783   18.8507 H   0  0  0  0  0  0  0  0  0  0  0  0
  1  2  1  0
  2  3  1  0
  3  4  1  0
  4  5  2  0
  4  6  1  0
  6  7  1  0
  7  8  2  0
  8  9  1  0
  9 10  2  0
 10 11  1  0
 11 12  1  0
 12 13  2  0
 13 14  1  0
 14 15  1  0
 15 16  1  0
 11 17  2  0
  3 18  1  0
 18 19  1  0
 19 20  2  0
 20 21  1  0
 21 22  2  0
 17  7  1  0
 22 18  1  0
 14 10  1  0
  1 23  1  0
  1 24  1  0
  1 25  1  0
  2 26  1  0
  2 27  1  0
  3 28  1  0
  6 29  1  0
  8 30  1  0
  9 31  1  0
 12 32  1  0
 13 33  1  0
 15 34  1  0
 15 35  1  0
 16 36  1  0
 16 37  1  0
 16 38  1  0
 17 39  1  0
 19 40  1  0
 20 41  1  0
 22 42  1  0
M  END
>  <Energy>  (430) 
36.402240900585511

>  <compound_id>  (430) 
69382

>  <target_id>  (430) 
1

>  <reference_id>  (430) 
97

>  <inspiration_ids>  (430) 
[97, 35]

>  <energy_score>  (430) 
-7.314906624494711

>  <distance_score>  (430) 
16.602254665572595

>  <path>  (430) 
/opt/xchem-fragalysis-2/maxwin/BulkDock/SCRATCH/511015/C69382-P97/C69382-P97.minimised.mol

>  <scratch_subdir>  (430) 
/opt/xchem-fragalysis-2/maxwin/BulkDock/SCRATCH/511015/C69382-P97

>  <fragmenstein_runtime>  (430) 
22.778080224990845

>  <fragmenstein_outcome>  (430) 
too moved

>  <fragmenstein_mode>  (430) 
expansion

>  <fragmenstein_error>  (430) 


$$$$
C69382-P35
     RDKit          3D

 42 44  0  0  0  0  0  0  0  0999 V2000
    0.6589  -19.5631   15.6770 C   0  0  0  0  0  0  0  0  0  0  0  0
    0.3874  -18.0770   15.8665 C   0  0  0  0  0  0  0  0  0  0  0  0
    0.8300  -17.5082   17.2410 C   0  0  0  0  0  0  0  0  0  0  0  0
    1.0837  -15.9370   16.9681 C   0  0  0  0  0  0  0  0  0  0  0  0
    0.1127  -15.2475   16.7826 O   0  0  0  0  0  0  0  0  0  0  0  0
    2.5413  -15.6046   16.8929 N   0  0  0  0  0  0  0  0  0  0  0  0
    3.2126  -14.3981   16.4864 C   0  0  0  0  0  0  0  0  0  0  0  0
    2.6421  -13.5062   15.5763 C   0  0  0  0  0  0  0  0  0  0  0  0
    3.3083  -12.3374   15.1209 C   0  0  0  0  0  0  0  0  0  0  0  0
    4.5998  -12.0566   15.5939 C   0  0  0  0  0  0  0  0  0  0  0  0
    5.2286  -12.9171   16.4970 C   0  0  0  0  0  0  0  0  0  0  0  0
    6.5180  -12.3593   16.7566 C   0  0  0  0  0  0  0  0  0  0  0  0
    6.6565  -11.2258   15.9872 C   0  0  0  0  0  0  0  0  0  0  0  0
    5.4832  -11.0300   15.3077 N   0  0  0  0  0  0  0  0  0  0  0  0
    5.2192   -9.9290   14.3974 C   0  0  0  0  0  0  0  0  0  0  0  0
    5.4962  -10.2905   12.9486 C   0  0  0  0  0  0  0  0  0  0  0  0
    4.5291  -14.0973   16.9240 C   0  0  0  0  0  0  0  0  0  0  0  0
   -0.1190  -17.9728   18.3210 N   0  0  0  0  0  0  0  0  0  0  0  0
   -0.1014  -19.2380   18.9032 C   0  0  0  0  0  0  0  0  0  0  0  0
   -1.1422  -19.2782   19.8022 C   0  0  0  0  0  0  0  0  0  0  0  0
   -1.8191  -18.0944   19.7798 N   0  0  0  0  0  0  0  0  0  0  0  0
   -1.1840  -17.3355   18.9025 C   0  0  0  0  0  0  0  0  0  0  0  0
    0.4718  -19.8455   14.6356 H   0  0  0  0  0  0  0  0  0  0  0  0
    1.6994  -19.8087   15.9103 H   0  0  0  0  0  0  0  0  0  0  0  0
    0.0035  -20.1771   16.2996 H   0  0  0  0  0  0  0  0  0  0  0  0
    0.9215  -17.5478   15.0663 H   0  0  0  0  0  0  0  0  0  0  0  0
   -0.6802  -17.8821   15.7039 H   0  0  0  0  0  0  0  0  0  0  0  0
    1.7881  -17.9655   17.5076 H   0  0  0  0  0  0  0  0  0  0  0  0
    3.0818  -16.4063   17.1924 H   0  0  0  0  0  0  0  0  0  0  0  0
    1.6470  -13.7093   15.1797 H   0  0  0  0  0  0  0  0  0  0  0  0
    2.8164  -11.6871   14.4031 H   0  0  0  0  0  0  0  0  0  0  0  0
    7.2789  -12.7795   17.4006 H   0  0  0  0  0  0  0  0  0  0  0  0
    7.5079  -10.5799   15.8542 H   0  0  0  0  0  0  0  0  0  0  0  0
    5.8321   -9.0797   14.7129 H   0  0  0  0  0  0  0  0  0  0  0  0
    4.1737   -9.6291   14.5279 H   0  0  0  0  0  0  0  0  0  0  0  0
    5.3364   -9.4207   12.3040 H   0  0  0  0  0  0  0  0  0  0  0  0
    6.5263  -10.6351   12.8127 H   0  0  0  0  0  0  0  0  0  0  0  0
    4.8333  -11.0922   12.6073 H   0  0  0  0  0  0  0  0  0  0  0  0
    5.0274  -14.7601   17.6275 H   0  0  0  0  0  0  0  0  0  0  0  0
    0.6469  -19.9732   18.6444 H   0  0  0  0  0  0  0  0  0  0  0  0
   -1.4339  -20.0922   20.4524 H   0  0  0  0  0  0  0  0  0  0  0  0
   -1.4532  -16.3217   18.6450 H   0  0  0  0  0  0  0  0  0  0  0  0
  1  2  1  0
  2  3  1  0
  3  4  1  0
  4  5  2  0
  4  6  1  0
  6  7  1  0
  7  8  2  0
  8  9  1  0
  9 10  2  0
 10 11  1  0
 11 12  1  0
 12 13  2  0
 13 14  1  0
 14 15  1  0
 15 16  1  0
 11 17  2  0
  3 18  1  0
 18 19  1  0
 19 20  2  0
 20 21  1  0
 21 22  2  0
 17  7  1  0
 22 18  1  0
 14 10  1  0
  1 23  1  0
  1 24  1  0
  1 25  1  0
  2 26  1  0
  2 27  1  0
  3 28  1  0
  6 29  1  0
  8 30  1  0
  9 31  1  0
 12 32  1  0
 13 33  1  0
 15 34  1  0
 15 35  1  0
 16 36  1  0
 16 37  1  0
 16 38  1  0
 17 39  1  0
 19 40  1  0
 20 41  1  0
 22 42  1  0
M  END
>  <Energy>  (431) 
41.807046792299531

>  <compound_id>  (431) 
69382

>  <target_id>  (431) 
1

>  <reference_id>  (431) 
35

>  <inspiration_ids>  (431) 
[97, 35]

>  <energy_score>  (431) 
-1.9101007327789716

>  <distance_score>  (431) 
16.26895289726704

>  <path>  (431) 
/opt/xchem-fragalysis-2/maxwin/BulkDock/SCRATCH/511015/C69382-P35/C69382-P35.minimised.mol

>  <scratch_subdir>  (431) 
/opt/xchem-fragalysis-2/maxwin/BulkDock/SCRATCH/511015/C69382-P35

>  <fragmenstein_runtime>  (431) 
34.38842844963074

>  <fragmenstein_outcome>  (431) 
too moved

>  <fragmenstein_mode>  (431) 
expansion

>  <fragmenstein_error>  (431) 


$$$$
C69383-P97
     RDKit          3D

 46 48  0  0  0  0  0  0  0  0999 V2000
   12.0955   -1.5584   15.6326 C   0  0  0  0  0  0  0  0  0  0  0  0
   11.9812   -2.6421   16.5504 O   0  0  0  0  0  0  0  0  0  0  0  0
   11.3912   -3.7909   15.9425 C   0  0  0  0  0  0  0  0  0  0  0  0
   11.4748   -5.0679   16.8237 C   0  0  0  0  0  0  0  0  0  0  0  0
   10.6940   -5.3185   18.1563 N   0  0  0  0  0  0  0  0  0  0  0  0
   11.9668   -5.2507   19.4454 C   0  0  0  0  0  0  0  0  0  0  0  0
   11.1077   -5.0593   20.5156 C   0  0  0  0  0  0  0  0  0  0  0  0
    9.2255   -4.8795   20.0029 C   0  0  0  0  0  0  0  0  0  0  0  0
    7.4748   -4.6763   20.6552 C   0  0  0  0  0  0  0  0  0  0  0  0
    6.4566   -5.6183   21.1784 C   0  0  0  0  0  0  0  0  0  0  0  0
    6.5635   -5.9574   22.5877 N   0  0  0  0  0  0  0  0  0  0  0  0
    6.2579   -7.2120   23.3094 C   0  0  0  0  0  0  0  0  0  0  0  0
    5.7673   -8.2386   22.9215 O   0  0  0  0  0  0  0  0  0  0  0  0
    6.7977   -7.1584   24.8458 C   0  0  0  0  0  0  0  0  0  0  0  0
    5.9908   -7.9514   25.9454 C   0  0  0  0  0  0  0  0  0  0  0  0
    6.5466   -9.1501   26.8397 C   0  0  0  0  0  0  0  0  0  0  0  0
    5.7077   -9.8618   27.8311 N   0  0  0  0  0  0  0  0  0  0  0  0
    5.8792  -11.1830   28.2025 C   0  0  0  0  0  0  0  0  0  0  0  0
    4.9600  -11.4369   29.2026 C   0  0  0  0  0  0  0  0  0  0  0  0
    4.2085  -10.3188   29.4302 N   0  0  0  0  0  0  0  0  0  0  0  0
    4.7565   -9.3738   28.6903 C   0  0  0  0  0  0  0  0  0  0  0  0
    6.1834   -6.4589   20.1103 C   0  0  0  0  0  0  0  0  0  0  0  0
    7.3191   -6.4919   19.0321 C   0  0  0  0  0  0  0  0  0  0  0  0
    9.2833   -5.9560   19.1373 C   0  0  0  0  0  0  0  0  0  0  0  0
   11.1079   -1.2672   15.2623 H   0  0  0  0  0  0  0  0  0  0  0  0
   12.5363   -0.7084   16.1598 H   0  0  0  0  0  0  0  0  0  0  0  0
   12.7499   -1.8266   14.7977 H   0  0  0  0  0  0  0  0  0  0  0  0
   10.4029   -3.5668   15.5533 H   0  0  0  0  0  0  0  0  0  0  0  0
   11.9945   -3.9440   15.0514 H   0  0  0  0  0  0  0  0  0  0  0  0
   12.5249   -5.0389   17.1431 H   0  0  0  0  0  0  0  0  0  0  0  0
   11.4382   -6.0084   16.2797 H   0  0  0  0  0  0  0  0  0  0  0  0
   12.9403   -4.9456   19.0866 H   0  0  0  0  0  0  0  0  0  0  0  0
   11.5279   -4.4185   21.3046 H   0  0  0  0  0  0  0  0  0  0  0  0
    6.8773   -4.5386   19.7302 H   0  0  0  0  0  0  0  0  0  0  0  0
    6.8986   -5.2694   23.2460 H   0  0  0  0  0  0  0  0  0  0  0  0
    7.8262   -7.5363   24.8178 H   0  0  0  0  0  0  0  0  0  0  0  0
    6.8414   -6.1068   25.1511 H   0  0  0  0  0  0  0  0  0  0  0  0
    5.2042   -8.3684   25.3593 H   0  0  0  0  0  0  0  0  0  0  0  0
    5.5706   -7.2067   26.6313 H   0  0  0  0  0  0  0  0  0  0  0  0
    6.9571   -9.9161   26.1706 H   0  0  0  0  0  0  0  0  0  0  0  0
    7.3868   -8.7586   27.4271 H   0  0  0  0  0  0  0  0  0  0  0  0
    6.6194  -11.7989   27.7132 H   0  0  0  0  0  0  0  0  0  0  0  0
    4.7632  -12.3597   29.7337 H   0  0  0  0  0  0  0  0  0  0  0  0
    4.4820   -8.3269   28.7220 H   0  0  0  0  0  0  0  0  0  0  0  0
    5.3353   -7.1250   20.0360 H   0  0  0  0  0  0  0  0  0  0  0  0
    6.8895   -6.7159   18.0380 H   0  0  0  0  0  0  0  0  0  0  0  0
  1  2  1  0
  2  3  1  0
  3  4  1  0
  4  5  1  0
  5  6  1  0
  6  7  2  0
  7  8  1  0
  8  9  2  0
  9 10  1  0
 10 11  1  0
 11 12  1  0
 12 13  2  0
 12 14  1  0
 14 15  1  0
 15 16  1  0
 16 17  1  0
 17 18  1  0
 18 19  2  0
 19 20  1  0
 20 21  2  0
 10 22  2  0
 22 23  1  0
 23 24  2  0
 24  5  1  0
 24  8  1  0
 21 17  1  0
  1 25  1  0
  1 26  1  0
  1 27  1  0
  3 28  1  0
  3 29  1  0
  4 30  1  0
  4 31  1  0
  6 32  1  0
  7 33  1  0
  9 34  1  0
 11 35  1  0
 14 36  1  0
 14 37  1  0
 15 38  1  0
 15 39  1  0
 16 40  1  0
 16 41  1  0
 18 42  1  0
 19 43  1  0
 21 44  1  0
 22 45  1  0
 23 46  1  0
M  END
>  <Energy>  (432) 
596.35557149292686

>  <compound_id>  (432) 
69383

>  <target_id>  (432) 
1

>  <reference_id>  (432) 
97

>  <inspiration_ids>  (432) 
[97, 35]

>  <energy_score>  (432) 
535.9198070873092

>  <distance_score>  (432) 
15.446328566932557

>  <path>  (432) 
/opt/xchem-fragalysis-2/maxwin/BulkDock/SCRATCH/511015/C69383-P97/C69383-P97.minimised.mol

>  <scratch_subdir>  (432) 
/opt/xchem-fragalysis-2/maxwin/BulkDock/SCRATCH/511015/C69383-P97

>  <fragmenstein_runtime>  (432) 
24.320868968963623

>  <fragmenstein_outcome>  (432) 
too moved

>  <fragmenstein_mode>  (432) 
expansion

>  <fragmenstein_error>  (432) 


$$$$
C69383-P35
     RDKit          3D

 46 48  0  0  0  0  0  0  0  0999 V2000
   13.8003   -2.4356   23.9719 C   0  0  0  0  0  0  0  0  0  0  0  0
   14.3948   -3.7048   24.2187 O   0  0  0  0  0  0  0  0  0  0  0  0
   13.9167   -4.6909   23.2987 C   0  0  0  0  0  0  0  0  0  0  0  0
   14.5981   -6.0092   23.6362 C   0  0  0  0  0  0  0  0  0  0  0  0
   14.1734   -7.1117   22.7944 N   0  0  0  0  0  0  0  0  0  0  0  0
   14.9152   -7.6234   21.7633 C   0  0  0  0  0  0  0  0  0  0  0  0
   14.2794   -8.7614   21.3215 C   0  0  0  0  0  0  0  0  0  0  0  0
   13.0352   -8.8769   22.0160 C   0  0  0  0  0  0  0  0  0  0  0  0
   11.8905   -9.7248   21.8965 C   0  0  0  0  0  0  0  0  0  0  0  0
   10.7756   -9.5317   22.7235 C   0  0  0  0  0  0  0  0  0  0  0  0
    9.5152  -10.0899   22.3959 N   0  0  0  0  0  0  0  0  0  0  0  0
    8.2073   -9.9230   23.0161 C   0  0  0  0  0  0  0  0  0  0  0  0
    7.8819   -9.3325   24.0112 O   0  0  0  0  0  0  0  0  0  0  0  0
    7.0604  -10.5489   22.1489 C   0  0  0  0  0  0  0  0  0  0  0  0
    5.7712  -10.6105   23.0261 C   0  0  0  0  0  0  0  0  0  0  0  0
    4.2402  -11.3783   22.4740 C   0  0  0  0  0  0  0  0  0  0  0  0
    3.2816  -12.6890   23.0638 N   0  0  0  0  0  0  0  0  0  0  0  0
    3.1776  -14.2718   23.0542 C   0  0  0  0  0  0  0  0  0  0  0  0
    3.9923  -14.6844   24.0787 C   0  0  0  0  0  0  0  0  0  0  0  0
    3.6104  -13.7706   24.9368 N   0  0  0  0  0  0  0  0  0  0  0  0
    2.7819  -12.8819   24.2510 C   0  0  0  0  0  0  0  0  0  0  0  0
   10.8945   -8.6315   23.7811 C   0  0  0  0  0  0  0  0  0  0  0  0
   12.0133   -7.7922   23.9317 C   0  0  0  0  0  0  0  0  0  0  0  0
   13.0361   -7.8737   22.9826 C   0  0  0  0  0  0  0  0  0  0  0  0
   12.7165   -2.4924   24.1074 H   0  0  0  0  0  0  0  0  0  0  0  0
   14.2035   -1.7222   24.6956 H   0  0  0  0  0  0  0  0  0  0  0  0
   14.0498   -2.0883   22.9654 H   0  0  0  0  0  0  0  0  0  0  0  0
   12.8285   -4.7801   23.3926 H   0  0  0  0  0  0  0  0  0  0  0  0
   14.1560   -4.3878   22.2725 H   0  0  0  0  0  0  0  0  0  0  0  0
   14.4131   -6.2882   24.6804 H   0  0  0  0  0  0  0  0  0  0  0  0
   15.6864   -5.9067   23.5438 H   0  0  0  0  0  0  0  0  0  0  0  0
   15.8541   -7.1757   21.4622 H   0  0  0  0  0  0  0  0  0  0  0  0
   14.6389   -9.4051   20.5272 H   0  0  0  0  0  0  0  0  0  0  0  0
   11.8691  -10.4688   21.1056 H   0  0  0  0  0  0  0  0  0  0  0  0
    9.4298  -10.7219   21.6074 H   0  0  0  0  0  0  0  0  0  0  0  0
    7.3710  -11.5246   21.7800 H   0  0  0  0  0  0  0  0  0  0  0  0
    6.8882   -9.8944   21.2880 H   0  0  0  0  0  0  0  0  0  0  0  0
    5.4975   -9.5684   23.2338 H   0  0  0  0  0  0  0  0  0  0  0  0
    6.1069  -11.1011   23.9488 H   0  0  0  0  0  0  0  0  0  0  0  0
    3.5385  -10.5449   22.5827 H   0  0  0  0  0  0  0  0  0  0  0  0
    4.5385  -11.7604   21.4646 H   0  0  0  0  0  0  0  0  0  0  0  0
    2.1760  -14.5639   23.1678 H   0  0  0  0  0  0  0  0  0  0  0  0
    4.6513  -15.5186   24.2365 H   0  0  0  0  0  0  0  0  0  0  0  0
    1.9605  -12.3166   24.6217 H   0  0  0  0  0  0  0  0  0  0  0  0
   10.0829   -8.5074   24.4959 H   0  0  0  0  0  0  0  0  0  0  0  0
   12.0403   -7.0622   24.7361 H   0  0  0  0  0  0  0  0  0  0  0  0
  1  2  1  0
  2  3  1  0
  3  4  1  0
  4  5  1  0
  5  6  1  0
  6  7  2  0
  7  8  1  0
  8  9  2  0
  9 10  1  0
 10 11  1  0
 11 12  1  0
 12 13  2  0
 12 14  1  0
 14 15  1  0
 15 16  1  0
 16 17  1  0
 17 18  1  0
 18 19  2  0
 19 20  1  0
 20 21  2  0
 10 22  2  0
 22 23  1  0
 23 24  2  0
 24  5  1  0
 24  8  1  0
 21 17  1  0
  1 25  1  0
  1 26  1  0
  1 27  1  0
  3 28  1  0
  3 29  1  0
  4 30  1  0
  4 31  1  0
  6 32  1  0
  7 33  1  0
  9 34  1  0
 11 35  1  0
 14 36  1  0
 14 37  1  0
 15 38  1  0
 15 39  1  0
 16 40  1  0
 16 41  1  0
 18 42  1  0
 19 43  1  0
 21 44  1  0
 22 45  1  0
 23 46  1  0
M  END
>  <Energy>  (433) 
212.62549896266063

>  <compound_id>  (433) 
69383

>  <target_id>  (433) 
1

>  <reference_id>  (433) 
35

>  <inspiration_ids>  (433) 
[97, 35]

>  <energy_score>  (433) 
152.1897345570428

>  <distance_score>  (433) 
14.930733438690908

>  <path>  (433) 
/opt/xchem-fragalysis-2/maxwin/BulkDock/SCRATCH/511015/C69383-P35/C69383-P35.minimised.mol

>  <scratch_subdir>  (433) 
/opt/xchem-fragalysis-2/maxwin/BulkDock/SCRATCH/511015/C69383-P35

>  <fragmenstein_runtime>  (433) 
38.75373029708862

>  <fragmenstein_outcome>  (433) 
too moved

>  <fragmenstein_mode>  (433) 
expansion

>  <fragmenstein_error>  (433) 


$$$$
C69391-P97
     RDKit          3D

 52 54  0  0  0  0  0  0  0  0999 V2000
   11.3675   -4.0890   17.1229 C   0  0  0  0  0  0  0  0  0  0  0  0
   10.8658   -5.5342   17.4204 C   0  0  0  0  0  0  0  0  0  0  0  0
   11.3716   -6.3174   16.5849 O   0  0  0  0  0  0  0  0  0  0  0  0
    9.7565   -6.2151   18.9482 N   0  0  0  0  0  0  0  0  0  0  0  0
    9.3095   -8.2715   19.6239 C   0  0  0  0  0  0  0  0  0  0  0  0
   10.6748   -8.3991   21.1387 C   0  0  0  0  0  0  0  0  0  0  0  0
   12.3338   -7.7595   21.6652 C   0  0  0  0  0  0  0  0  0  0  0  0
   12.8894   -6.4598   21.5469 C   0  0  0  0  0  0  0  0  0  0  0  0
   14.2270   -6.4901   21.8044 N   0  0  0  0  0  0  0  0  0  0  0  0
   14.6318   -7.7918   21.8755 C   0  0  0  0  0  0  0  0  0  0  0  0
   15.9298   -8.2975   21.8465 C   0  0  0  0  0  0  0  0  0  0  0  0
   16.0722   -9.6812   21.8468 C   0  0  0  0  0  0  0  0  0  0  0  0
   14.9613  -10.5164   21.9110 C   0  0  0  0  0  0  0  0  0  0  0  0
   13.6662   -9.9931   21.9584 C   0  0  0  0  0  0  0  0  0  0  0  0
   13.4884   -8.6006   21.9203 C   0  0  0  0  0  0  0  0  0  0  0  0
    8.0142  -10.0475   19.1411 C   0  0  0  0  0  0  0  0  0  0  0  0
    8.2528  -10.4480   17.9713 O   0  0  0  0  0  0  0  0  0  0  0  0
    6.5481  -10.8885   20.1730 N   0  0  0  0  0  0  0  0  0  0  0  0
    6.7026  -12.2707   21.2037 C   0  0  0  0  0  0  0  0  0  0  0  0
    5.2521  -12.1695   19.7532 C   0  0  0  0  0  0  0  0  0  0  0  0
    3.9422  -12.5656   21.3664 C   0  0  0  0  0  0  0  0  0  0  0  0
    3.0447  -13.1529   23.1809 C   0  0  0  0  0  0  0  0  0  0  0  0
    1.5711  -13.3702   24.2594 N   0  0  0  0  0  0  0  0  0  0  0  0
    1.0554  -13.3741   25.8940 C   0  0  0  0  0  0  0  0  0  0  0  0
   -0.0828  -14.2069   26.0515 C   0  0  0  0  0  0  0  0  0  0  0  0
   -0.4648  -14.8536   24.8871 N   0  0  0  0  0  0  0  0  0  0  0  0
    0.3821  -14.5239   23.9130 C   0  0  0  0  0  0  0  0  0  0  0  0
   12.1645   -4.3026   16.3779 H   0  0  0  0  0  0  0  0  0  0  0  0
   10.8071   -3.4580   16.4344 H   0  0  0  0  0  0  0  0  0  0  0  0
   12.0896   -3.6556   17.8279 H   0  0  0  0  0  0  0  0  0  0  0  0
    9.5093   -5.4295   19.5616 H   0  0  0  0  0  0  0  0  0  0  0  0
   10.1721   -8.9231   19.5032 H   0  0  0  0  0  0  0  0  0  0  0  0
   10.6213   -7.4190   21.0656 H   0  0  0  0  0  0  0  0  0  0  0  0
   10.4274   -8.7776   22.1368 H   0  0  0  0  0  0  0  0  0  0  0  0
   12.4901   -5.5125   21.2008 H   0  0  0  0  0  0  0  0  0  0  0  0
   14.8512   -5.6971   21.7404 H   0  0  0  0  0  0  0  0  0  0  0  0
   16.7973   -7.6488   21.7884 H   0  0  0  0  0  0  0  0  0  0  0  0
   17.0678  -10.1168   21.7976 H   0  0  0  0  0  0  0  0  0  0  0  0
   15.1031  -11.5946   21.9042 H   0  0  0  0  0  0  0  0  0  0  0  0
   12.8173  -10.6671   21.9521 H   0  0  0  0  0  0  0  0  0  0  0  0
    6.8025  -11.8105   22.2367 H   0  0  0  0  0  0  0  0  0  0  0  0
    6.0355  -13.0847   21.1161 H   0  0  0  0  0  0  0  0  0  0  0  0
    7.6502  -12.7732   20.9530 H   0  0  0  0  0  0  0  0  0  0  0  0
    5.6895  -13.1462   19.5258 H   0  0  0  0  0  0  0  0  0  0  0  0
    4.7425  -12.1037   18.8348 H   0  0  0  0  0  0  0  0  0  0  0  0
    3.3048  -13.2028   20.8313 H   0  0  0  0  0  0  0  0  0  0  0  0
    4.0332  -11.5831   21.8176 H   0  0  0  0  0  0  0  0  0  0  0  0
    3.4976  -12.6882   23.9999 H   0  0  0  0  0  0  0  0  0  0  0  0
    3.1054  -14.2634   23.2259 H   0  0  0  0  0  0  0  0  0  0  0  0
    1.2434  -12.5064   26.4781 H   0  0  0  0  0  0  0  0  0  0  0  0
   -0.6911  -14.2817   26.9417 H   0  0  0  0  0  0  0  0  0  0  0  0
    0.3713  -14.8878   22.9094 H   0  0  0  0  0  0  0  0  0  0  0  0
  1  2  1  0
  2  3  2  0
  2  4  1  0
  4  5  1  0
  5  6  1  0
  6  7  1  0
  7  8  2  0
  8  9  1  0
  9 10  1  0
 10 11  2  0
 11 12  1  0
 12 13  2  0
 13 14  1  0
 14 15  2  0
  5 16  1  0
 16 17  2  0
 16 18  1  0
 18 19  1  0
 18 20  1  0
 20 21  1  0
 21 22  1  0
 22 23  1  0
 23 24  1  0
 24 25  2  0
 25 26  1  0
 26 27  2  0
 15  7  1  0
 27 23  1  0
 15 10  1  0
  1 28  1  0
  1 29  1  0
  1 30  1  0
  4 31  1  0
  5 32  1  0
  6 33  1  0
  6 34  1  0
  8 35  1  0
  9 36  1  0
 11 37  1  0
 12 38  1  0
 13 39  1  0
 14 40  1  0
 19 41  1  0
 19 42  1  0
 19 43  1  0
 20 44  1  0
 20 45  1  0
 21 46  1  0
 21 47  1  0
 22 48  1  0
 22 49  1  0
 24 50  1  0
 25 51  1  0
 27 52  1  0
M  END
>  <Energy>  (434) 
1437.7295738952673

>  <compound_id>  (434) 
69391

>  <target_id>  (434) 
1

>  <reference_id>  (434) 
97

>  <inspiration_ids>  (434) 
[97, 35]

>  <energy_score>  (434) 
1386.1408681547525

>  <distance_score>  (434) 
12.753452908192347

>  <path>  (434) 
/opt/xchem-fragalysis-2/maxwin/BulkDock/SCRATCH/511015/C69391-P97/C69391-P97.minimised.mol

>  <scratch_subdir>  (434) 
/opt/xchem-fragalysis-2/maxwin/BulkDock/SCRATCH/511015/C69391-P97

>  <fragmenstein_runtime>  (434) 
21.27223038673401

>  <fragmenstein_outcome>  (434) 
too moved

>  <fragmenstein_mode>  (434) 
expansion

>  <fragmenstein_error>  (434) 


$$$$
C69391-P35
     RDKit          3D

 52 54  0  0  0  0  0  0  0  0999 V2000
    1.4272   -8.7151   18.3620 C   0  0  0  0  0  0  0  0  0  0  0  0
    0.3913   -8.3370   17.2999 C   0  0  0  0  0  0  0  0  0  0  0  0
    0.9329   -8.1089   16.2758 O   0  0  0  0  0  0  0  0  0  0  0  0
   -0.9703   -8.2164   17.6653 N   0  0  0  0  0  0  0  0  0  0  0  0
   -2.1734   -7.8582   16.8542 C   0  0  0  0  0  0  0  0  0  0  0  0
   -1.8195   -7.1225   15.2799 C   0  0  0  0  0  0  0  0  0  0  0  0
   -1.6404   -5.5290   14.8566 C   0  0  0  0  0  0  0  0  0  0  0  0
   -2.7267   -4.6746   14.8008 C   0  0  0  0  0  0  0  0  0  0  0  0
   -2.3622   -3.4508   14.2979 N   0  0  0  0  0  0  0  0  0  0  0  0
   -1.0244   -3.3861   14.0165 C   0  0  0  0  0  0  0  0  0  0  0  0
   -0.2623   -2.2913   13.5427 C   0  0  0  0  0  0  0  0  0  0  0  0
    1.1211   -2.4135   13.4089 C   0  0  0  0  0  0  0  0  0  0  0  0
    1.7287   -3.5921   13.7674 C   0  0  0  0  0  0  0  0  0  0  0  0
    0.9359   -4.6587   14.2189 C   0  0  0  0  0  0  0  0  0  0  0  0
   -0.4971   -4.6411   14.3259 C   0  0  0  0  0  0  0  0  0  0  0  0
   -3.0882   -9.2518   16.7367 C   0  0  0  0  0  0  0  0  0  0  0  0
   -3.5965   -9.4457   15.6567 O   0  0  0  0  0  0  0  0  0  0  0  0
   -3.2256  -10.0098   18.0213 N   0  0  0  0  0  0  0  0  0  0  0  0
   -4.3369   -9.4459   18.8300 C   0  0  0  0  0  0  0  0  0  0  0  0
   -4.0087  -11.4126   18.3523 C   0  0  0  0  0  0  0  0  0  0  0  0
   -4.0074  -12.2123   19.7740 C   0  0  0  0  0  0  0  0  0  0  0  0
   -4.8024  -13.6289   19.7815 C   0  0  0  0  0  0  0  0  0  0  0  0
   -4.9403  -14.4426   21.0032 N   0  0  0  0  0  0  0  0  0  0  0  0
   -6.0024  -14.4416   21.8821 C   0  0  0  0  0  0  0  0  0  0  0  0
   -5.8058  -15.5131   22.7299 C   0  0  0  0  0  0  0  0  0  0  0  0
   -4.6649  -16.1843   22.3920 N   0  0  0  0  0  0  0  0  0  0  0  0
   -4.1879  -15.5474   21.3412 C   0  0  0  0  0  0  0  0  0  0  0  0
    1.9728   -9.6094   18.1301 H   0  0  0  0  0  0  0  0  0  0  0  0
    1.0611   -8.5575   19.3755 H   0  0  0  0  0  0  0  0  0  0  0  0
    2.3064   -8.0903   18.2414 H   0  0  0  0  0  0  0  0  0  0  0  0
   -1.0929   -8.5820   18.6082 H   0  0  0  0  0  0  0  0  0  0  0  0
   -2.7603   -7.1284   17.4209 H   0  0  0  0  0  0  0  0  0  0  0  0
   -0.9824   -7.6245   14.8238 H   0  0  0  0  0  0  0  0  0  0  0  0
   -2.6878   -7.4111   14.6697 H   0  0  0  0  0  0  0  0  0  0  0  0
   -3.7641   -4.8541   15.0490 H   0  0  0  0  0  0  0  0  0  0  0  0
   -3.0007   -2.6807   14.1625 H   0  0  0  0  0  0  0  0  0  0  0  0
   -0.7470   -1.3484   13.3043 H   0  0  0  0  0  0  0  0  0  0  0  0
    1.7118   -1.5714   13.0611 H   0  0  0  0  0  0  0  0  0  0  0  0
    2.8071   -3.6814   13.7513 H   0  0  0  0  0  0  0  0  0  0  0  0
    1.4803   -5.4544   14.6934 H   0  0  0  0  0  0  0  0  0  0  0  0
   -5.3337   -9.5355   18.3762 H   0  0  0  0  0  0  0  0  0  0  0  0
   -4.1709   -8.3589   18.8395 H   0  0  0  0  0  0  0  0  0  0  0  0
   -4.2867   -9.7040   19.8907 H   0  0  0  0  0  0  0  0  0  0  0  0
   -3.4494  -12.0871   17.6854 H   0  0  0  0  0  0  0  0  0  0  0  0
   -5.0082  -11.4227   17.8876 H   0  0  0  0  0  0  0  0  0  0  0  0
   -4.4543  -11.5986   20.5611 H   0  0  0  0  0  0  0  0  0  0  0  0
   -2.9638  -12.3940   20.0526 H   0  0  0  0  0  0  0  0  0  0  0  0
   -4.3304  -14.2789   19.0343 H   0  0  0  0  0  0  0  0  0  0  0  0
   -5.8255  -13.4358   19.4354 H   0  0  0  0  0  0  0  0  0  0  0  0
   -6.7951  -13.7094   21.8236 H   0  0  0  0  0  0  0  0  0  0  0  0
   -6.4292  -15.8348   23.5542 H   0  0  0  0  0  0  0  0  0  0  0  0
   -3.3080  -15.8396   20.7816 H   0  0  0  0  0  0  0  0  0  0  0  0
  1  2  1  0
  2  3  2  0
  2  4  1  0
  4  5  1  0
  5  6  1  0
  6  7  1  0
  7  8  2  0
  8  9  1  0
  9 10  1  0
 10 11  2  0
 11 12  1  0
 12 13  2  0
 13 14  1  0
 14 15  2  0
  5 16  1  0
 16 17  2  0
 16 18  1  0
 18 19  1  0
 18 20  1  0
 20 21  1  0
 21 22  1  0
 22 23  1  0
 23 24  1  0
 24 25  2  0
 25 26  1  0
 26 27  2  0
 15  7  1  0
 27 23  1  0
 15 10  1  0
  1 28  1  0
  1 29  1  0
  1 30  1  0
  4 31  1  0
  5 32  1  0
  6 33  1  0
  6 34  1  0
  8 35  1  0
  9 36  1  0
 11 37  1  0
 12 38  1  0
 13 39  1  0
 14 40  1  0
 19 41  1  0
 19 42  1  0
 19 43  1  0
 20 44  1  0
 20 45  1  0
 21 46  1  0
 21 47  1  0
 22 48  1  0
 22 49  1  0
 24 50  1  0
 25 51  1  0
 27 52  1  0
M  END
>  <Energy>  (435) 
186.4842987907885

>  <compound_id>  (435) 
69391

>  <target_id>  (435) 
1

>  <reference_id>  (435) 
35

>  <inspiration_ids>  (435) 
[97, 35]

>  <energy_score>  (435) 
134.89559305028467

>  <distance_score>  (435) 
15.804439085604676

>  <path>  (435) 
/opt/xchem-fragalysis-2/maxwin/BulkDock/SCRATCH/511015/C69391-P35/C69391-P35.minimised.mol

>  <scratch_subdir>  (435) 
/opt/xchem-fragalysis-2/maxwin/BulkDock/SCRATCH/511015/C69391-P35

>  <fragmenstein_runtime>  (435) 
27.507030487060547

>  <fragmenstein_outcome>  (435) 
too moved

>  <fragmenstein_mode>  (435) 
expansion

>  <fragmenstein_error>  (435) 


$$$$
C69392-P97
     RDKit          3D

 37 39  0  0  0  0  0  0  0  0999 V2000
    2.8371   -6.2398   14.4934 C   0  0  0  0  0  0  0  0  0  0  0  0
    2.3963   -7.3198   15.2762 C   0  0  0  0  0  0  0  0  0  0  0  0
    2.3696   -7.3578   16.7038 C   0  0  0  0  0  0  0  0  0  0  0  0
    1.9718   -8.6884   17.5387 C   0  0  0  0  0  0  0  0  0  0  0  0
    2.7365  -10.2130   17.5369 N   0  0  0  0  0  0  0  0  0  0  0  0
    2.5829  -11.8418   16.5446 C   0  0  0  0  0  0  0  0  0  0  0  0
    1.1609  -13.5630   16.8086 C   0  0  0  0  0  0  0  0  0  0  0  0
   -0.8397  -13.5703   17.3373 C   0  0  0  0  0  0  0  0  0  0  0  0
   -2.0124  -14.8998   17.3720 N   0  0  0  0  0  0  0  0  0  0  0  0
   -3.2717  -15.1201   16.5637 C   0  0  0  0  0  0  0  0  0  0  0  0
   -3.9829  -16.2314   17.1498 C   0  0  0  0  0  0  0  0  0  0  0  0
   -3.2490  -16.8067   18.4160 N   0  0  0  0  0  0  0  0  0  0  0  0
   -2.1410  -16.0695   18.7247 C   0  0  0  0  0  0  0  0  0  0  0  0
    2.6420   -6.0501   17.2289 C   0  0  0  0  0  0  0  0  0  0  0  0
    2.5191   -5.5498   18.5088 N   0  0  0  0  0  0  0  0  0  0  0  0
    2.8560   -4.2243   18.5804 C   0  0  0  0  0  0  0  0  0  0  0  0
    3.1388   -3.8022   17.3121 C   0  0  0  0  0  0  0  0  0  0  0  0
    3.0402   -4.9338   16.4626 C   0  0  0  0  0  0  0  0  0  0  0  0
    3.2012   -5.0456   15.0809 C   0  0  0  0  0  0  0  0  0  0  0  0
    2.8826   -6.3458   13.4118 H   0  0  0  0  0  0  0  0  0  0  0  0
    2.1625   -8.1996   14.6952 H   0  0  0  0  0  0  0  0  0  0  0  0
    0.8990   -8.7667   17.3998 H   0  0  0  0  0  0  0  0  0  0  0  0
    2.0124   -8.4191   18.5803 H   0  0  0  0  0  0  0  0  0  0  0  0
    3.7278  -10.1173   17.7652 H   0  0  0  0  0  0  0  0  0  0  0  0
    3.3553  -12.0500   17.3673 H   0  0  0  0  0  0  0  0  0  0  0  0
    3.2109  -11.7568   15.6168 H   0  0  0  0  0  0  0  0  0  0  0  0
    1.4124  -14.5275   16.4425 H   0  0  0  0  0  0  0  0  0  0  0  0
    1.5136  -13.9551   17.8137 H   0  0  0  0  0  0  0  0  0  0  0  0
   -1.5457  -13.3801   16.5177 H   0  0  0  0  0  0  0  0  0  0  0  0
   -1.2135  -12.8179   18.0381 H   0  0  0  0  0  0  0  0  0  0  0  0
   -3.4358  -14.4953   15.6998 H   0  0  0  0  0  0  0  0  0  0  0  0
   -4.8904  -16.7255   16.8267 H   0  0  0  0  0  0  0  0  0  0  0  0
   -1.5551  -15.8804   19.6097 H   0  0  0  0  0  0  0  0  0  0  0  0
    2.1478   -6.0715   19.2870 H   0  0  0  0  0  0  0  0  0  0  0  0
    2.8131   -3.6969   19.5242 H   0  0  0  0  0  0  0  0  0  0  0  0
    3.3763   -2.7890   17.0177 H   0  0  0  0  0  0  0  0  0  0  0  0
    3.5061   -4.1979   14.4761 H   0  0  0  0  0  0  0  0  0  0  0  0
  1  2  2  0
  2  3  1  0
  3  4  1  0
  4  5  1  0
  5  6  1  0
  6  7  1  0
  7  8  1  0
  8  9  1  0
  9 10  1  0
 10 11  2  0
 11 12  1  0
 12 13  2  0
  3 14  2  0
 14 15  1  0
 15 16  1  0
 16 17  2  0
 17 18  1  0
 18 19  2  0
 19  1  1  0
 13  9  1  0
 18 14  1  0
  1 20  1  0
  2 21  1  0
  4 22  1  0
  4 23  1  0
  5 24  1  0
  6 25  1  0
  6 26  1  0
  7 27  1  0
  7 28  1  0
  8 29  1  0
  8 30  1  0
 10 31  1  0
 11 32  1  0
 13 33  1  0
 15 34  1  0
 16 35  1  0
 17 36  1  0
 19 37  1  0
M  END
>  <Energy>  (436) 
510.37047638397263

>  <compound_id>  (436) 
69392

>  <target_id>  (436) 
1

>  <reference_id>  (436) 
97

>  <inspiration_ids>  (436) 
[97, 35]

>  <energy_score>  (436) 
477.69805966147374

>  <distance_score>  (436) 
15.233676657341627

>  <path>  (436) 
/opt/xchem-fragalysis-2/maxwin/BulkDock/SCRATCH/511015/C69392-P97/C69392-P97.minimised.mol

>  <scratch_subdir>  (436) 
/opt/xchem-fragalysis-2/maxwin/BulkDock/SCRATCH/511015/C69392-P97

>  <fragmenstein_runtime>  (436) 
13.547393560409546

>  <fragmenstein_outcome>  (436) 
too moved

>  <fragmenstein_mode>  (436) 
expansion

>  <fragmenstein_error>  (436) 


$$$$
C69392-P35
     RDKit          3D

 37 39  0  0  0  0  0  0  0  0999 V2000
    9.0347  -10.7087   16.9701 C   0  0  0  0  0  0  0  0  0  0  0  0
    8.0519  -10.4023   18.1468 C   0  0  0  0  0  0  0  0  0  0  0  0
    7.3809  -11.0863   19.4677 C   0  0  0  0  0  0  0  0  0  0  0  0
    5.8212  -12.4203   19.6929 C   0  0  0  0  0  0  0  0  0  0  0  0
    4.0839  -13.3636   19.2910 N   0  0  0  0  0  0  0  0  0  0  0  0
    2.5816  -14.7943   19.5527 C   0  0  0  0  0  0  0  0  0  0  0  0
    1.0494  -16.1234   20.3799 C   0  0  0  0  0  0  0  0  0  0  0  0
    0.1796  -17.8924   21.1158 C   0  0  0  0  0  0  0  0  0  0  0  0
   -0.3002  -19.0274   22.6168 N   0  0  0  0  0  0  0  0  0  0  0  0
    0.5882  -20.0237   23.6668 C   0  0  0  0  0  0  0  0  0  0  0  0
   -0.1466  -20.4716   24.7191 C   0  0  0  0  0  0  0  0  0  0  0  0
   -1.4217  -20.3390   24.3947 N   0  0  0  0  0  0  0  0  0  0  0  0
   -1.4127  -19.9891   23.1138 C   0  0  0  0  0  0  0  0  0  0  0  0
    9.1721  -11.3087   19.4625 C   0  0  0  0  0  0  0  0  0  0  0  0
   10.3500  -10.2518   19.7254 N   0  0  0  0  0  0  0  0  0  0  0  0
   11.4678  -10.9769   20.1179 C   0  0  0  0  0  0  0  0  0  0  0  0
   11.4791  -11.9608   19.1775 C   0  0  0  0  0  0  0  0  0  0  0  0
   10.3014  -11.6262   18.4660 C   0  0  0  0  0  0  0  0  0  0  0  0
   10.1238  -11.4983   17.1017 C   0  0  0  0  0  0  0  0  0  0  0  0
    8.8658  -10.2657   16.0048 H   0  0  0  0  0  0  0  0  0  0  0  0
    8.5107   -9.4873   18.5616 H   0  0  0  0  0  0  0  0  0  0  0  0
    6.2613  -13.1610   20.3272 H   0  0  0  0  0  0  0  0  0  0  0  0
    5.3726  -11.7998   20.4646 H   0  0  0  0  0  0  0  0  0  0  0  0
    4.1473  -13.5171   20.3142 H   0  0  0  0  0  0  0  0  0  0  0  0
    2.2130  -14.5759   18.5388 H   0  0  0  0  0  0  0  0  0  0  0  0
    2.4620  -14.2835   20.4844 H   0  0  0  0  0  0  0  0  0  0  0  0
    0.2122  -16.0486   19.7326 H   0  0  0  0  0  0  0  0  0  0  0  0
    0.6912  -15.6475   21.2619 H   0  0  0  0  0  0  0  0  0  0  0  0
   -0.4438  -18.3222   20.3350 H   0  0  0  0  0  0  0  0  0  0  0  0
   -0.6443  -17.2922   21.4191 H   0  0  0  0  0  0  0  0  0  0  0  0
    1.6165  -20.2390   23.3833 H   0  0  0  0  0  0  0  0  0  0  0  0
    0.1894  -20.9916   25.6050 H   0  0  0  0  0  0  0  0  0  0  0  0
   -2.1781  -20.4359   22.5000 H   0  0  0  0  0  0  0  0  0  0  0  0
   10.1233   -9.3216   20.0511 H   0  0  0  0  0  0  0  0  0  0  0  0
   12.2015  -10.6121   20.8241 H   0  0  0  0  0  0  0  0  0  0  0  0
   12.3616  -12.4936   18.8480 H   0  0  0  0  0  0  0  0  0  0  0  0
   10.8519  -11.6967   16.3314 H   0  0  0  0  0  0  0  0  0  0  0  0
  1  2  2  0
  2  3  1  0
  3  4  1  0
  4  5  1  0
  5  6  1  0
  6  7  1  0
  7  8  1  0
  8  9  1  0
  9 10  1  0
 10 11  2  0
 11 12  1  0
 12 13  2  0
  3 14  2  0
 14 15  1  0
 15 16  1  0
 16 17  2  0
 17 18  1  0
 18 19  2  0
 19  1  1  0
 13  9  1  0
 18 14  1  0
  1 20  1  0
  2 21  1  0
  4 22  1  0
  4 23  1  0
  5 24  1  0
  6 25  1  0
  6 26  1  0
  7 27  1  0
  7 28  1  0
  8 29  1  0
  8 30  1  0
 10 31  1  0
 11 32  1  0
 13 33  1  0
 15 34  1  0
 16 35  1  0
 17 36  1  0
 19 37  1  0
M  END
>  <Energy>  (437) 
1238.2150764895659

>  <compound_id>  (437) 
69392

>  <target_id>  (437) 
1

>  <reference_id>  (437) 
35

>  <inspiration_ids>  (437) 
[97, 35]

>  <energy_score>  (437) 
1205.5426597670703

>  <distance_score>  (437) 
12.505055868246084

>  <path>  (437) 
/opt/xchem-fragalysis-2/maxwin/BulkDock/SCRATCH/511015/C69392-P35/C69392-P35.minimised.mol

>  <scratch_subdir>  (437) 
/opt/xchem-fragalysis-2/maxwin/BulkDock/SCRATCH/511015/C69392-P35

>  <fragmenstein_runtime>  (437) 
21.106439352035522

>  <fragmenstein_outcome>  (437) 
too moved

>  <fragmenstein_mode>  (437) 
expansion

>  <fragmenstein_error>  (437) 


$$$$
C69395-P97
     RDKit          3D

 41 43  0  0  0  0  0  0  0  0999 V2000
   -3.2403   -9.2279   22.7348 O   0  0  0  0  0  0  0  0  0  0  0  0
   -2.8225  -10.0462   22.0041 C   0  0  0  0  0  0  0  0  0  0  0  0
   -1.8456   -9.9089   20.8397 N   0  0  0  0  0  0  0  0  0  0  0  0
   -1.2064   -8.6687   20.2174 C   0  0  0  0  0  0  0  0  0  0  0  0
    0.2782   -8.2461   20.5703 C   0  0  0  0  0  0  0  0  0  0  0  0
    0.8835   -6.9962   19.9013 C   0  0  0  0  0  0  0  0  0  0  0  0
    0.5633   -5.6951   20.2572 C   0  0  0  0  0  0  0  0  0  0  0  0
    1.4124   -4.8261   19.6326 N   0  0  0  0  0  0  0  0  0  0  0  0
    2.3399   -5.5223   18.9078 C   0  0  0  0  0  0  0  0  0  0  0  0
    3.4542   -5.0409   18.2286 C   0  0  0  0  0  0  0  0  0  0  0  0
    4.2860   -5.9692   17.6102 C   0  0  0  0  0  0  0  0  0  0  0  0
    3.9180   -7.2978   17.5344 C   0  0  0  0  0  0  0  0  0  0  0  0
    4.9586   -8.4797   16.5002 Br  0  0  0  0  0  0  0  0  0  0  0  0
    2.7681   -7.7568   18.1809 C   0  0  0  0  0  0  0  0  0  0  0  0
    1.9873   -6.8715   18.9585 C   0  0  0  0  0  0  0  0  0  0  0  0
   -3.0978  -11.5806   21.9872 N   0  0  0  0  0  0  0  0  0  0  0  0
   -4.0477  -12.4304   22.8299 C   0  0  0  0  0  0  0  0  0  0  0  0
   -3.7570  -13.9761   23.0113 C   0  0  0  0  0  0  0  0  0  0  0  0
   -4.5585  -14.7968   23.9327 N   0  0  0  0  0  0  0  0  0  0  0  0
   -4.2678  -15.0648   25.2531 C   0  0  0  0  0  0  0  0  0  0  0  0
   -5.1024  -16.0949   25.6323 C   0  0  0  0  0  0  0  0  0  0  0  0
   -5.8875  -16.4828   24.5832 N   0  0  0  0  0  0  0  0  0  0  0  0
   -5.5350  -15.7025   23.5804 C   0  0  0  0  0  0  0  0  0  0  0  0
   -1.7626  -10.7909   20.3696 H   0  0  0  0  0  0  0  0  0  0  0  0
   -1.8701   -7.8364   20.4778 H   0  0  0  0  0  0  0  0  0  0  0  0
   -1.2777   -8.8213   19.1348 H   0  0  0  0  0  0  0  0  0  0  0  0
    0.3055   -8.0716   21.6546 H   0  0  0  0  0  0  0  0  0  0  0  0
    0.9386   -9.0879   20.4094 H   0  0  0  0  0  0  0  0  0  0  0  0
   -0.1835   -5.3219   20.9461 H   0  0  0  0  0  0  0  0  0  0  0  0
    1.4065   -3.8225   19.7499 H   0  0  0  0  0  0  0  0  0  0  0  0
    3.6468   -3.9791   18.2189 H   0  0  0  0  0  0  0  0  0  0  0  0
    5.2078   -5.6535   17.1495 H   0  0  0  0  0  0  0  0  0  0  0  0
    2.4951   -8.8020   18.0987 H   0  0  0  0  0  0  0  0  0  0  0  0
   -2.6531  -11.9903   21.1824 H   0  0  0  0  0  0  0  0  0  0  0  0
   -4.0895  -11.9478   23.8126 H   0  0  0  0  0  0  0  0  0  0  0  0
   -5.0363  -12.3048   22.3749 H   0  0  0  0  0  0  0  0  0  0  0  0
   -2.7177  -14.0757   23.3463 H   0  0  0  0  0  0  0  0  0  0  0  0
   -3.8319  -14.4458   22.0239 H   0  0  0  0  0  0  0  0  0  0  0  0
   -3.4959  -14.5302   25.7885 H   0  0  0  0  0  0  0  0  0  0  0  0
   -5.1677  -16.5788   26.5980 H   0  0  0  0  0  0  0  0  0  0  0  0
   -5.9302  -15.7612   22.5742 H   0  0  0  0  0  0  0  0  0  0  0  0
  1  2  2  0
  2  3  1  0
  3  4  1  0
  4  5  1  0
  5  6  1  0
  6  7  2  0
  7  8  1  0
  8  9  1  0
  9 10  2  0
 10 11  1  0
 11 12  2  0
 12 13  1  0
 12 14  1  0
 14 15  2  0
  2 16  1  0
 16 17  1  0
 17 18  1  0
 18 19  1  0
 19 20  1  0
 20 21  2  0
 21 22  1  0
 22 23  2  0
 15  6  1  0
 23 19  1  0
 15  9  1  0
  3 24  1  0
  4 25  1  0
  4 26  1  0
  5 27  1  0
  5 28  1  0
  7 29  1  0
  8 30  1  0
 10 31  1  0
 11 32  1  0
 14 33  1  0
 16 34  1  0
 17 35  1  0
 17 36  1  0
 18 37  1  0
 18 38  1  0
 20 39  1  0
 21 40  1  0
 23 41  1  0
M  END
>  <Energy>  (438) 
-13.240577604435916

>  <compound_id>  (438) 
69395

>  <target_id>  (438) 
1

>  <reference_id>  (438) 
97

>  <inspiration_ids>  (438) 
[97, 35]

>  <energy_score>  (438) 
15.409003240514494

>  <distance_score>  (438) 
15.752884092008768

>  <path>  (438) 
/opt/xchem-fragalysis-2/maxwin/BulkDock/SCRATCH/511015/C69395-P97/C69395-P97.minimised.mol

>  <scratch_subdir>  (438) 
/opt/xchem-fragalysis-2/maxwin/BulkDock/SCRATCH/511015/C69395-P97

>  <fragmenstein_runtime>  (438) 
13.315075397491455

>  <fragmenstein_outcome>  (438) 
too moved

>  <fragmenstein_mode>  (438) 
expansion

>  <fragmenstein_error>  (438) 


$$$$
C69395-P35
     RDKit          3D

 41 43  0  0  0  0  0  0  0  0999 V2000
   -0.2294   -8.3165   26.4135 O   0  0  0  0  0  0  0  0  0  0  0  0
   -0.8029   -8.2741   25.3951 C   0  0  0  0  0  0  0  0  0  0  0  0
   -0.3991   -7.5472   24.0836 N   0  0  0  0  0  0  0  0  0  0  0  0
    0.7830   -6.6126   23.7800 C   0  0  0  0  0  0  0  0  0  0  0  0
    1.6229   -6.5579   22.4049 C   0  0  0  0  0  0  0  0  0  0  0  0
    3.1106   -6.1093   22.5238 C   0  0  0  0  0  0  0  0  0  0  0  0
    4.0678   -6.8322   23.2175 C   0  0  0  0  0  0  0  0  0  0  0  0
    5.2752   -6.2019   23.1536 N   0  0  0  0  0  0  0  0  0  0  0  0
    5.1452   -5.0122   22.4954 C   0  0  0  0  0  0  0  0  0  0  0  0
    6.0834   -3.9861   22.3698 C   0  0  0  0  0  0  0  0  0  0  0  0
    5.7052   -2.8731   21.6393 C   0  0  0  0  0  0  0  0  0  0  0  0
    4.5027   -2.8660   20.9444 C   0  0  0  0  0  0  0  0  0  0  0  0
    4.1926   -1.4329   19.7481 Br  0  0  0  0  0  0  0  0  0  0  0  0
    3.5500   -3.8865   21.1105 C   0  0  0  0  0  0  0  0  0  0  0  0
    3.8450   -4.9715   21.9691 C   0  0  0  0  0  0  0  0  0  0  0  0
   -2.1603   -8.9386   25.0179 N   0  0  0  0  0  0  0  0  0  0  0  0
   -3.1699   -9.7372   25.8843 C   0  0  0  0  0  0  0  0  0  0  0  0
   -4.0421  -10.9808   25.3443 C   0  0  0  0  0  0  0  0  0  0  0  0
   -4.2848  -12.1953   26.1468 N   0  0  0  0  0  0  0  0  0  0  0  0
   -4.7057  -13.4125   25.6355 C   0  0  0  0  0  0  0  0  0  0  0  0
   -4.8735  -14.2517   26.7148 C   0  0  0  0  0  0  0  0  0  0  0  0
   -4.5983  -13.5829   27.8749 N   0  0  0  0  0  0  0  0  0  0  0  0
   -4.2629  -12.3601   27.5076 C   0  0  0  0  0  0  0  0  0  0  0  0
   -1.0637   -7.7708   23.3620 H   0  0  0  0  0  0  0  0  0  0  0  0
    0.3841   -5.6058   23.9537 H   0  0  0  0  0  0  0  0  0  0  0  0
    1.4835   -6.7976   24.6026 H   0  0  0  0  0  0  0  0  0  0  0  0
    1.1009   -5.8941   21.7064 H   0  0  0  0  0  0  0  0  0  0  0  0
    1.6108   -7.5596   21.9612 H   0  0  0  0  0  0  0  0  0  0  0  0
    3.9834   -7.7597   23.7617 H   0  0  0  0  0  0  0  0  0  0  0  0
    6.1201   -6.5181   23.6087 H   0  0  0  0  0  0  0  0  0  0  0  0
    7.0471   -4.0366   22.8610 H   0  0  0  0  0  0  0  0  0  0  0  0
    6.3819   -2.0279   21.5661 H   0  0  0  0  0  0  0  0  0  0  0  0
    2.5867   -3.8315   20.6139 H   0  0  0  0  0  0  0  0  0  0  0  0
   -2.4275   -8.6451   24.0908 H   0  0  0  0  0  0  0  0  0  0  0  0
   -3.8688   -8.9771   26.2524 H   0  0  0  0  0  0  0  0  0  0  0  0
   -2.5880  -10.0626   26.7539 H   0  0  0  0  0  0  0  0  0  0  0  0
   -3.6184  -11.3084   24.3963 H   0  0  0  0  0  0  0  0  0  0  0  0
   -5.0449  -10.5974   25.1144 H   0  0  0  0  0  0  0  0  0  0  0  0
   -4.8440  -13.5726   24.5753 H   0  0  0  0  0  0  0  0  0  0  0  0
   -5.1846  -15.2881   26.7156 H   0  0  0  0  0  0  0  0  0  0  0  0
   -3.9990  -11.5632   28.1907 H   0  0  0  0  0  0  0  0  0  0  0  0
  1  2  2  0
  2  3  1  0
  3  4  1  0
  4  5  1  0
  5  6  1  0
  6  7  2  0
  7  8  1  0
  8  9  1  0
  9 10  2  0
 10 11  1  0
 11 12  2  0
 12 13  1  0
 12 14  1  0
 14 15  2  0
  2 16  1  0
 16 17  1  0
 17 18  1  0
 18 19  1  0
 19 20  1  0
 20 21  2  0
 21 22  1  0
 22 23  2  0
 15  6  1  0
 23 19  1  0
 15  9  1  0
  3 24  1  0
  4 25  1  0
  4 26  1  0
  5 27  1  0
  5 28  1  0
  7 29  1  0
  8 30  1  0
 10 31  1  0
 11 32  1  0
 14 33  1  0
 16 34  1  0
 17 35  1  0
 17 36  1  0
 18 37  1  0
 18 38  1  0
 20 39  1  0
 21 40  1  0
 23 41  1  0
M  END
>  <Energy>  (439) 
3.7864914327408128

>  <compound_id>  (439) 
69395

>  <target_id>  (439) 
1

>  <reference_id>  (439) 
35

>  <inspiration_ids>  (439) 
[97, 35]

>  <energy_score>  (439) 
32.436072277694734

>  <distance_score>  (439) 
15.762155766485726

>  <path>  (439) 
/opt/xchem-fragalysis-2/maxwin/BulkDock/SCRATCH/511015/C69395-P35/C69395-P35.minimised.mol

>  <scratch_subdir>  (439) 
/opt/xchem-fragalysis-2/maxwin/BulkDock/SCRATCH/511015/C69395-P35

>  <fragmenstein_runtime>  (439) 
33.260528326034546

>  <fragmenstein_outcome>  (439) 
too moved

>  <fragmenstein_mode>  (439) 
expansion

>  <fragmenstein_error>  (439) 


$$$$
C69396-P97
     RDKit          3D

 41 43  0  0  0  0  0  0  0  0999 V2000
    5.5762   -7.3941   15.4724 O   0  0  0  0  0  0  0  0  0  0  0  0
    5.6279   -6.8252   16.5065 C   0  0  0  0  0  0  0  0  0  0  0  0
    6.6103   -5.6443   16.9567 N   0  0  0  0  0  0  0  0  0  0  0  0
    7.9416   -4.6422   15.9550 C   0  0  0  0  0  0  0  0  0  0  0  0
    9.7662   -4.0323   15.2573 C   0  0  0  0  0  0  0  0  0  0  0  0
   11.4575   -3.5053   15.5639 C   0  0  0  0  0  0  0  0  0  0  0  0
   11.7156   -2.2657   14.9585 C   0  0  0  0  0  0  0  0  0  0  0  0
   11.7988   -2.6442   13.6044 N   0  0  0  0  0  0  0  0  0  0  0  0
   12.1844   -3.9715   13.4692 C   0  0  0  0  0  0  0  0  0  0  0  0
   12.3751   -5.0715   12.1268 C   0  0  0  0  0  0  0  0  0  0  0  0
   11.9044   -5.3547   10.5104 Cl  0  0  0  0  0  0  0  0  0  0  0  0
   13.3163   -6.4391   12.3094 C   0  0  0  0  0  0  0  0  0  0  0  0
   14.3242   -6.9566   14.2777 C   0  0  0  0  0  0  0  0  0  0  0  0
   13.8687   -5.5998   15.5799 C   0  0  0  0  0  0  0  0  0  0  0  0
   12.7445   -4.1813   15.1231 C   0  0  0  0  0  0  0  0  0  0  0  0
    4.6845   -6.9436   17.7648 N   0  0  0  0  0  0  0  0  0  0  0  0
    3.3559   -7.7623   17.9735 C   0  0  0  0  0  0  0  0  0  0  0  0
    2.0850   -7.2578   18.9212 C   0  0  0  0  0  0  0  0  0  0  0  0
    0.9954   -8.0857   19.5082 N   0  0  0  0  0  0  0  0  0  0  0  0
    0.7565   -8.3042   20.8583 C   0  0  0  0  0  0  0  0  0  0  0  0
   -0.4294   -8.9972   20.9601 C   0  0  0  0  0  0  0  0  0  0  0  0
   -1.0083   -9.1124   19.7337 N   0  0  0  0  0  0  0  0  0  0  0  0
   -0.1760   -8.5068   18.8994 C   0  0  0  0  0  0  0  0  0  0  0  0
    6.4549   -5.4325   17.9254 H   0  0  0  0  0  0  0  0  0  0  0  0
    7.8459   -5.6651   15.4637 H   0  0  0  0  0  0  0  0  0  0  0  0
    7.5096   -3.6172   15.6091 H   0  0  0  0  0  0  0  0  0  0  0  0
   10.1951   -4.1752   16.2768 H   0  0  0  0  0  0  0  0  0  0  0  0
    9.4231   -3.0333   14.9231 H   0  0  0  0  0  0  0  0  0  0  0  0
   11.2573   -1.2983   15.1143 H   0  0  0  0  0  0  0  0  0  0  0  0
   11.4982   -2.0413   12.8569 H   0  0  0  0  0  0  0  0  0  0  0  0
   13.2444   -7.0374   11.3447 H   0  0  0  0  0  0  0  0  0  0  0  0
   15.0926   -7.7306   14.5256 H   0  0  0  0  0  0  0  0  0  0  0  0
   14.4209   -5.4089   16.4948 H   0  0  0  0  0  0  0  0  0  0  0  0
    5.0517   -6.3823   18.5121 H   0  0  0  0  0  0  0  0  0  0  0  0
    2.9659   -7.9467   16.9663 H   0  0  0  0  0  0  0  0  0  0  0  0
    3.7192   -8.7015   18.3367 H   0  0  0  0  0  0  0  0  0  0  0  0
    2.5174   -6.6975   19.7596 H   0  0  0  0  0  0  0  0  0  0  0  0
    1.5576   -6.5013   18.3236 H   0  0  0  0  0  0  0  0  0  0  0  0
    1.4393   -7.9595   21.6185 H   0  0  0  0  0  0  0  0  0  0  0  0
   -0.9089   -9.3658   21.8531 H   0  0  0  0  0  0  0  0  0  0  0  0
   -0.3376   -8.3798   17.8362 H   0  0  0  0  0  0  0  0  0  0  0  0
  1  2  2  0
  2  3  1  0
  3  4  1  0
  4  5  1  0
  5  6  1  0
  6  7  2  0
  7  8  1  0
  8  9  1  0
  9 10  2  0
 10 11  1  0
 10 12  1  0
 12 13  2  0
 13 14  1  0
 14 15  2  0
  2 16  1  0
 16 17  1  0
 17 18  1  0
 18 19  1  0
 19 20  1  0
 20 21  2  0
 21 22  1  0
 22 23  2  0
 15  6  1  0
 23 19  1  0
 15  9  1  0
  3 24  1  0
  4 25  1  0
  4 26  1  0
  5 27  1  0
  5 28  1  0
  7 29  1  0
  8 30  1  0
 12 31  1  0
 13 32  1  0
 14 33  1  0
 16 34  1  0
 17 35  1  0
 17 36  1  0
 18 37  1  0
 18 38  1  0
 20 39  1  0
 21 40  1  0
 23 41  1  0
M  END
>  <Energy>  (440) 
1014.2178718631537

>  <compound_id>  (440) 
69396

>  <target_id>  (440) 
1

>  <reference_id>  (440) 
97

>  <inspiration_ids>  (440) 
[97, 35]

>  <energy_score>  (440) 
1047.9250813086594

>  <distance_score>  (440) 
15.27475056615391

>  <path>  (440) 
/opt/xchem-fragalysis-2/maxwin/BulkDock/SCRATCH/511015/C69396-P97/C69396-P97.minimised.mol

>  <scratch_subdir>  (440) 
/opt/xchem-fragalysis-2/maxwin/BulkDock/SCRATCH/511015/C69396-P97

>  <fragmenstein_runtime>  (440) 
12.884618043899536

>  <fragmenstein_outcome>  (440) 
too moved

>  <fragmenstein_mode>  (440) 
expansion

>  <fragmenstein_error>  (440) 


$$$$
C69396-P35
     RDKit          3D

 41 43  0  0  0  0  0  0  0  0999 V2000
    6.3781  -12.3605   27.0792 O   0  0  0  0  0  0  0  0  0  0  0  0
    6.0031  -11.4156   27.6625 C   0  0  0  0  0  0  0  0  0  0  0  0
    6.4582   -9.9618   27.5486 N   0  0  0  0  0  0  0  0  0  0  0  0
    7.5847   -9.3348   26.7338 C   0  0  0  0  0  0  0  0  0  0  0  0
    7.3372   -8.2625   25.5852 C   0  0  0  0  0  0  0  0  0  0  0  0
    8.4861   -8.0503   24.5697 C   0  0  0  0  0  0  0  0  0  0  0  0
    8.6331   -8.7368   23.3721 C   0  0  0  0  0  0  0  0  0  0  0  0
    9.7864   -8.3355   22.7459 N   0  0  0  0  0  0  0  0  0  0  0  0
   10.4150   -7.3694   23.4927 C   0  0  0  0  0  0  0  0  0  0  0  0
   11.6379   -6.7095   23.2917 C   0  0  0  0  0  0  0  0  0  0  0  0
   12.6995   -7.1343   22.0232 Cl  0  0  0  0  0  0  0  0  0  0  0  0
   11.9951   -5.6814   24.1608 C   0  0  0  0  0  0  0  0  0  0  0  0
   11.1644   -5.3478   25.2233 C   0  0  0  0  0  0  0  0  0  0  0  0
    9.9750   -6.0583   25.4566 C   0  0  0  0  0  0  0  0  0  0  0  0
    9.5827   -7.1020   24.5896 C   0  0  0  0  0  0  0  0  0  0  0  0
    4.9205  -11.3347   28.8258 N   0  0  0  0  0  0  0  0  0  0  0  0
    4.1183  -12.5040   29.6054 C   0  0  0  0  0  0  0  0  0  0  0  0
    3.0081  -13.5150   28.9334 C   0  0  0  0  0  0  0  0  0  0  0  0
    2.2776  -14.5509   29.6963 N   0  0  0  0  0  0  0  0  0  0  0  0
    2.4478  -15.9173   29.5837 C   0  0  0  0  0  0  0  0  0  0  0  0
    1.3592  -16.5014   30.1954 C   0  0  0  0  0  0  0  0  0  0  0  0
    0.5056  -15.5409   30.6642 N   0  0  0  0  0  0  0  0  0  0  0  0
    1.0637  -14.3927   30.3328 C   0  0  0  0  0  0  0  0  0  0  0  0
    5.9924   -9.4123   28.2495 H   0  0  0  0  0  0  0  0  0  0  0  0
    8.1063  -10.1886   26.2850 H   0  0  0  0  0  0  0  0  0  0  0  0
    8.2684   -8.8989   27.4711 H   0  0  0  0  0  0  0  0  0  0  0  0
    7.0882   -7.3023   26.0522 H   0  0  0  0  0  0  0  0  0  0  0  0
    6.4486   -8.5712   25.0212 H   0  0  0  0  0  0  0  0  0  0  0  0
    8.0218   -9.5095   22.9227 H   0  0  0  0  0  0  0  0  0  0  0  0
   10.1310   -8.6936   21.8638 H   0  0  0  0  0  0  0  0  0  0  0  0
   12.9269   -5.1391   24.0165 H   0  0  0  0  0  0  0  0  0  0  0  0
   11.4540   -4.5481   25.9021 H   0  0  0  0  0  0  0  0  0  0  0  0
    9.3627   -5.8084   26.3191 H   0  0  0  0  0  0  0  0  0  0  0  0
    4.7585  -10.3698   29.0649 H   0  0  0  0  0  0  0  0  0  0  0  0
    3.5879  -11.9496   30.3892 H   0  0  0  0  0  0  0  0  0  0  0  0
    4.8759  -13.0946   30.1192 H   0  0  0  0  0  0  0  0  0  0  0  0
    3.4952  -14.0502   28.1142 H   0  0  0  0  0  0  0  0  0  0  0  0
    2.2093  -12.8896   28.5201 H   0  0  0  0  0  0  0  0  0  0  0  0
    3.2991  -16.3426   29.0716 H   0  0  0  0  0  0  0  0  0  0  0  0
    1.1454  -17.5561   30.3075 H   0  0  0  0  0  0  0  0  0  0  0  0
    0.6313  -13.4169   30.5095 H   0  0  0  0  0  0  0  0  0  0  0  0
  1  2  2  0
  2  3  1  0
  3  4  1  0
  4  5  1  0
  5  6  1  0
  6  7  2  0
  7  8  1  0
  8  9  1  0
  9 10  2  0
 10 11  1  0
 10 12  1  0
 12 13  2  0
 13 14  1  0
 14 15  2  0
  2 16  1  0
 16 17  1  0
 17 18  1  0
 18 19  1  0
 19 20  1  0
 20 21  2  0
 21 22  1  0
 22 23  2  0
 15  6  1  0
 23 19  1  0
 15  9  1  0
  3 24  1  0
  4 25  1  0
  4 26  1  0
  5 27  1  0
  5 28  1  0
  7 29  1  0
  8 30  1  0
 12 31  1  0
 13 32  1  0
 14 33  1  0
 16 34  1  0
 17 35  1  0
 17 36  1  0
 18 37  1  0
 18 38  1  0
 20 39  1  0
 21 40  1  0
 23 41  1  0
M  END
>  <Energy>  (441) 
3.1163553786890796

>  <compound_id>  (441) 
69396

>  <target_id>  (441) 
1

>  <reference_id>  (441) 
35

>  <inspiration_ids>  (441) 
[97, 35]

>  <energy_score>  (441) 
36.82356482418788

>  <distance_score>  (441) 
15.307017897181042

>  <path>  (441) 
/opt/xchem-fragalysis-2/maxwin/BulkDock/SCRATCH/511015/C69396-P35/C69396-P35.minimised.mol

>  <scratch_subdir>  (441) 
/opt/xchem-fragalysis-2/maxwin/BulkDock/SCRATCH/511015/C69396-P35

>  <fragmenstein_runtime>  (441) 
30.7355535030365

>  <fragmenstein_outcome>  (441) 
too moved

>  <fragmenstein_mode>  (441) 
expansion

>  <fragmenstein_error>  (441) 


$$$$
C69397-P97
     RDKit          3D

 44 46  0  0  0  0  0  0  0  0999 V2000
   12.6771  -15.0614   22.4798 C   0  0  0  0  0  0  0  0  0  0  0  0
   12.2186  -13.6865   22.8171 C   0  0  0  0  0  0  0  0  0  0  0  0
   12.7487  -12.6074   22.1463 N   0  0  0  0  0  0  0  0  0  0  0  0
   12.2133  -11.4354   22.6057 C   0  0  0  0  0  0  0  0  0  0  0  0
   12.5235  -10.1182   22.2414 C   0  0  0  0  0  0  0  0  0  0  0  0
   11.8030   -9.0893   22.8430 C   0  0  0  0  0  0  0  0  0  0  0  0
   10.8026   -9.3801   23.7625 C   0  0  0  0  0  0  0  0  0  0  0  0
   10.5311  -10.7094   24.1381 C   0  0  0  0  0  0  0  0  0  0  0  0
   11.2643  -11.7788   23.5742 C   0  0  0  0  0  0  0  0  0  0  0  0
   11.3035  -13.2355   23.7679 C   0  0  0  0  0  0  0  0  0  0  0  0
   10.4289  -14.1260   24.7263 C   0  0  0  0  0  0  0  0  0  0  0  0
   11.1136  -15.2246   25.7010 C   0  0  0  0  0  0  0  0  0  0  0  0
   10.3465  -16.4731   26.2005 N   0  0  0  0  0  0  0  0  0  0  0  0
   10.1634  -17.0461   27.6446 C   0  0  0  0  0  0  0  0  0  0  0  0
   10.5111  -16.5952   28.6739 O   0  0  0  0  0  0  0  0  0  0  0  0
    9.3676  -18.3799   27.3653 N   0  0  0  0  0  0  0  0  0  0  0  0
    8.7424  -19.3969   28.3383 C   0  0  0  0  0  0  0  0  0  0  0  0
    7.7611  -20.6331   27.8781 C   0  0  0  0  0  0  0  0  0  0  0  0
    6.3946  -20.8665   28.3837 N   0  0  0  0  0  0  0  0  0  0  0  0
    5.2887  -21.1994   27.6208 C   0  0  0  0  0  0  0  0  0  0  0  0
    4.2825  -21.5143   28.5091 C   0  0  0  0  0  0  0  0  0  0  0  0
    4.7410  -21.4223   29.7936 N   0  0  0  0  0  0  0  0  0  0  0  0
    6.0052  -21.0616   29.6892 C   0  0  0  0  0  0  0  0  0  0  0  0
   12.8346  -15.1685   21.4014 H   0  0  0  0  0  0  0  0  0  0  0  0
   13.6204  -15.2803   22.9900 H   0  0  0  0  0  0  0  0  0  0  0  0
   11.9423  -15.8124   22.7823 H   0  0  0  0  0  0  0  0  0  0  0  0
   13.4605  -12.6643   21.4305 H   0  0  0  0  0  0  0  0  0  0  0  0
   13.3201   -9.9096   21.5343 H   0  0  0  0  0  0  0  0  0  0  0  0
   12.0440   -8.0584   22.6052 H   0  0  0  0  0  0  0  0  0  0  0  0
   10.2435   -8.5757   24.2336 H   0  0  0  0  0  0  0  0  0  0  0  0
    9.7713  -10.9106   24.8885 H   0  0  0  0  0  0  0  0  0  0  0  0
    9.7223  -14.6673   24.0935 H   0  0  0  0  0  0  0  0  0  0  0  0
    9.8241  -13.4634   25.3573 H   0  0  0  0  0  0  0  0  0  0  0  0
   11.9918  -15.6402   25.1979 H   0  0  0  0  0  0  0  0  0  0  0  0
   11.4728  -14.7101   26.5990 H   0  0  0  0  0  0  0  0  0  0  0  0
   10.0080  -17.1400   25.5320 H   0  0  0  0  0  0  0  0  0  0  0  0
    9.2981  -18.5244   26.3768 H   0  0  0  0  0  0  0  0  0  0  0  0
    9.6295  -19.8755   28.7735 H   0  0  0  0  0  0  0  0  0  0  0  0
    8.3024  -18.8347   29.1605 H   0  0  0  0  0  0  0  0  0  0  0  0
    7.7332  -20.6839   26.7850 H   0  0  0  0  0  0  0  0  0  0  0  0
    8.2904  -21.5465   28.1872 H   0  0  0  0  0  0  0  0  0  0  0  0
    5.3073  -21.1934   26.5398 H   0  0  0  0  0  0  0  0  0  0  0  0
    3.2654  -21.8112   28.2876 H   0  0  0  0  0  0  0  0  0  0  0  0
    6.6854  -20.9294   30.5210 H   0  0  0  0  0  0  0  0  0  0  0  0
  1  2  1  0
  2  3  1  0
  3  4  1  0
  4  5  2  0
  5  6  1  0
  6  7  2  0
  7  8  1  0
  8  9  2  0
  9 10  1  0
 10 11  1  0
 11 12  1  0
 12 13  1  0
 13 14  1  0
 14 15  2  0
 14 16  1  0
 16 17  1  0
 17 18  1  0
 18 19  1  0
 19 20  1  0
 20 21  2  0
 21 22  1  0
 22 23  2  0
 10  2  2  0
 23 19  1  0
  9  4  1  0
  1 24  1  0
  1 25  1  0
  1 26  1  0
  3 27  1  0
  5 28  1  0
  6 29  1  0
  7 30  1  0
  8 31  1  0
 11 32  1  0
 11 33  1  0
 12 34  1  0
 12 35  1  0
 13 36  1  0
 16 37  1  0
 17 38  1  0
 17 39  1  0
 18 40  1  0
 18 41  1  0
 20 42  1  0
 21 43  1  0
 23 44  1  0
M  END
>  <Energy>  (442) 
12.133237025986574

>  <compound_id>  (442) 
69397

>  <target_id>  (442) 
1

>  <reference_id>  (442) 
97

>  <inspiration_ids>  (442) 
[97, 35]

>  <energy_score>  (442) 
42.17848199149728

>  <distance_score>  (442) 
16.356051931555605

>  <path>  (442) 
/opt/xchem-fragalysis-2/maxwin/BulkDock/SCRATCH/511015/C69397-P97/C69397-P97.minimised.mol

>  <scratch_subdir>  (442) 
/opt/xchem-fragalysis-2/maxwin/BulkDock/SCRATCH/511015/C69397-P97

>  <fragmenstein_runtime>  (442) 
13.686606407165527

>  <fragmenstein_outcome>  (442) 
too moved

>  <fragmenstein_mode>  (442) 
expansion

>  <fragmenstein_error>  (442) 


$$$$
C69397-P35
     RDKit          3D

 44 46  0  0  0  0  0  0  0  0999 V2000
    2.1619   -3.6551   18.0269 C   0  0  0  0  0  0  0  0  0  0  0  0
    3.1608   -3.5126   19.1179 C   0  0  0  0  0  0  0  0  0  0  0  0
    3.7339   -2.2938   19.3947 N   0  0  0  0  0  0  0  0  0  0  0  0
    4.6095   -2.3960   20.4471 C   0  0  0  0  0  0  0  0  0  0  0  0
    5.3751   -1.4077   21.0839 C   0  0  0  0  0  0  0  0  0  0  0  0
    6.2410   -1.8146   22.1047 C   0  0  0  0  0  0  0  0  0  0  0  0
    6.3494   -3.1578   22.4576 C   0  0  0  0  0  0  0  0  0  0  0  0
    5.5625   -4.1277   21.8221 C   0  0  0  0  0  0  0  0  0  0  0  0
    4.6541   -3.7437   20.8097 C   0  0  0  0  0  0  0  0  0  0  0  0
    3.6590   -4.4382   20.0273 C   0  0  0  0  0  0  0  0  0  0  0  0
    3.2510   -5.8943   20.1745 C   0  0  0  0  0  0  0  0  0  0  0  0
    1.7528   -6.1179   20.5965 C   0  0  0  0  0  0  0  0  0  0  0  0
    1.2445   -7.4893   20.8774 N   0  0  0  0  0  0  0  0  0  0  0  0
    0.2802   -7.9882   21.9394 C   0  0  0  0  0  0  0  0  0  0  0  0
   -0.2218   -7.4108   22.8307 O   0  0  0  0  0  0  0  0  0  0  0  0
    0.1357   -9.4491   21.5211 N   0  0  0  0  0  0  0  0  0  0  0  0
   -0.7453  -10.5266   22.0487 C   0  0  0  0  0  0  0  0  0  0  0  0
   -0.2808  -12.3752   22.7081 C   0  0  0  0  0  0  0  0  0  0  0  0
   -0.7906  -13.8034   24.0513 N   0  0  0  0  0  0  0  0  0  0  0  0
   -1.6689  -13.4614   25.5394 C   0  0  0  0  0  0  0  0  0  0  0  0
   -2.6420  -14.4144   25.7707 C   0  0  0  0  0  0  0  0  0  0  0  0
   -2.5692  -15.3510   24.7861 N   0  0  0  0  0  0  0  0  0  0  0  0
   -1.5289  -15.0224   24.0112 C   0  0  0  0  0  0  0  0  0  0  0  0
    2.1849   -4.6652   17.6061 H   0  0  0  0  0  0  0  0  0  0  0  0
    1.1543   -3.4617   18.4078 H   0  0  0  0  0  0  0  0  0  0  0  0
    2.3638   -2.9516   17.2125 H   0  0  0  0  0  0  0  0  0  0  0  0
    3.5230   -1.4315   18.9135 H   0  0  0  0  0  0  0  0  0  0  0  0
    5.3043   -0.3650   20.7947 H   0  0  0  0  0  0  0  0  0  0  0  0
    6.8295   -1.0674   22.6315 H   0  0  0  0  0  0  0  0  0  0  0  0
    7.0172   -3.4595   23.2599 H   0  0  0  0  0  0  0  0  0  0  0  0
    5.6281   -5.1659   22.1354 H   0  0  0  0  0  0  0  0  0  0  0  0
    3.4463   -6.4208   19.2331 H   0  0  0  0  0  0  0  0  0  0  0  0
    3.8876   -6.3437   20.9428 H   0  0  0  0  0  0  0  0  0  0  0  0
    1.5429   -5.5262   21.4955 H   0  0  0  0  0  0  0  0  0  0  0  0
    1.0973   -5.7287   19.8099 H   0  0  0  0  0  0  0  0  0  0  0  0
    1.4160   -8.2234   20.2129 H   0  0  0  0  0  0  0  0  0  0  0  0
    0.6378   -9.6009   20.6637 H   0  0  0  0  0  0  0  0  0  0  0  0
   -1.4015   -9.9115   22.6506 H   0  0  0  0  0  0  0  0  0  0  0  0
   -1.3845  -10.6737   21.1515 H   0  0  0  0  0  0  0  0  0  0  0  0
    0.6799  -11.7884   22.9747 H   0  0  0  0  0  0  0  0  0  0  0  0
   -1.1809  -12.2227   21.7578 H   0  0  0  0  0  0  0  0  0  0  0  0
   -1.2624  -12.6665   26.1480 H   0  0  0  0  0  0  0  0  0  0  0  0
   -3.3310  -14.4944   26.5993 H   0  0  0  0  0  0  0  0  0  0  0  0
   -1.3946  -15.0993   22.9832 H   0  0  0  0  0  0  0  0  0  0  0  0
  1  2  1  0
  2  3  1  0
  3  4  1  0
  4  5  2  0
  5  6  1  0
  6  7  2  0
  7  8  1  0
  8  9  2  0
  9 10  1  0
 10 11  1  0
 11 12  1  0
 12 13  1  0
 13 14  1  0
 14 15  2  0
 14 16  1  0
 16 17  1  0
 17 18  1  0
 18 19  1  0
 19 20  1  0
 20 21  2  0
 21 22  1  0
 22 23  2  0
 10  2  2  0
 23 19  1  0
  9  4  1  0
  1 24  1  0
  1 25  1  0
  1 26  1  0
  3 27  1  0
  5 28  1  0
  6 29  1  0
  7 30  1  0
  8 31  1  0
 11 32  1  0
 11 33  1  0
 12 34  1  0
 12 35  1  0
 13 36  1  0
 16 37  1  0
 17 38  1  0
 17 39  1  0
 18 40  1  0
 18 41  1  0
 20 42  1  0
 21 43  1  0
 23 44  1  0
M  END
>  <Energy>  (443) 
353.23601626326797

>  <compound_id>  (443) 
69397

>  <target_id>  (443) 
1

>  <reference_id>  (443) 
35

>  <inspiration_ids>  (443) 
[97, 35]

>  <energy_score>  (443) 
383.281261228778

>  <distance_score>  (443) 
14.685853324498801

>  <path>  (443) 
/opt/xchem-fragalysis-2/maxwin/BulkDock/SCRATCH/511015/C69397-P35/C69397-P35.minimised.mol

>  <scratch_subdir>  (443) 
/opt/xchem-fragalysis-2/maxwin/BulkDock/SCRATCH/511015/C69397-P35

>  <fragmenstein_runtime>  (443) 
28.229209661483765

>  <fragmenstein_outcome>  (443) 
too moved

>  <fragmenstein_mode>  (443) 
expansion

>  <fragmenstein_error>  (443) 


$$$$
C36896-P97
     RDKit          3D

 42 45  0  0  0  0  0  0  0  0999 V2000
   -4.5100  -21.5162   22.1266 O   0  0  0  0  0  0  0  0  0  0  0  0
   -4.0663  -20.9820   23.0800 C   0  0  0  0  0  0  0  0  0  0  0  0
   -2.7454  -20.2505   23.2674 N   0  0  0  0  0  0  0  0  0  0  0  0
   -1.5817  -20.0778   22.3348 C   0  0  0  0  0  0  0  0  0  0  0  0
   -0.3260  -20.5608   22.7824 C   0  0  0  0  0  0  0  0  0  0  0  0
    0.8811  -20.4302   22.0558 C   0  0  0  0  0  0  0  0  0  0  0  0
    0.9540  -19.7088   20.8656 C   0  0  0  0  0  0  0  0  0  0  0  0
   -0.2159  -19.0581   20.4707 C   0  0  0  0  0  0  0  0  0  0  0  0
   -0.3428  -18.0810   19.4962 N   0  0  0  0  0  0  0  0  0  0  0  0
   -1.6438  -17.6977   19.3999 C   0  0  0  0  0  0  0  0  0  0  0  0
   -2.3587  -18.4250   20.3369 C   0  0  0  0  0  0  0  0  0  0  0  0
   -1.4725  -19.2569   21.1116 C   0  0  0  0  0  0  0  0  0  0  0  0
   -4.8109  -20.7586   24.5214 N   0  0  0  0  0  0  0  0  0  0  0  0
   -4.5175  -21.9396   25.4644 C   0  0  0  0  0  0  0  0  0  0  0  0
   -4.7938  -21.7951   27.0489 C   0  0  0  0  0  0  0  0  0  0  0  0
   -6.3283  -21.8555   27.4157 C   0  0  0  0  0  0  0  0  0  0  0  0
   -6.9376  -22.3149   28.9596 N   0  0  0  0  0  0  0  0  0  0  0  0
   -7.0643  -21.7882   31.1863 C   0  0  0  0  0  0  0  0  0  0  0  0
   -6.1548  -23.1594   32.0915 C   0  0  0  0  0  0  0  0  0  0  0  0
   -5.3276  -24.1211   30.6768 N   0  0  0  0  0  0  0  0  0  0  0  0
   -5.7064  -23.8957   29.0897 C   0  0  0  0  0  0  0  0  0  0  0  0
   -6.9672  -20.8992   26.3933 C   0  0  0  0  0  0  0  0  0  0  0  0
   -6.2853  -21.0712   24.9608 C   0  0  0  0  0  0  0  0  0  0  0  0
   -2.6455  -19.9854   24.2354 H   0  0  0  0  0  0  0  0  0  0  0  0
   -0.2929  -21.1319   23.7096 H   0  0  0  0  0  0  0  0  0  0  0  0
    1.7825  -20.8983   22.4470 H   0  0  0  0  0  0  0  0  0  0  0  0
    1.8930  -19.5705   20.3422 H   0  0  0  0  0  0  0  0  0  0  0  0
    0.4236  -17.6954   18.9622 H   0  0  0  0  0  0  0  0  0  0  0  0
   -1.9599  -16.9385   18.6982 H   0  0  0  0  0  0  0  0  0  0  0  0
   -3.4200  -18.3119   20.5183 H   0  0  0  0  0  0  0  0  0  0  0  0
   -4.8767  -22.9004   25.0610 H   0  0  0  0  0  0  0  0  0  0  0  0
   -3.4243  -22.0415   25.3935 H   0  0  0  0  0  0  0  0  0  0  0  0
   -4.2143  -22.5769   27.5422 H   0  0  0  0  0  0  0  0  0  0  0  0
   -4.3545  -20.8412   27.3522 H   0  0  0  0  0  0  0  0  0  0  0  0
   -6.6473  -22.8285   26.9980 H   0  0  0  0  0  0  0  0  0  0  0  0
   -6.4936  -20.8341   31.5277 H   0  0  0  0  0  0  0  0  0  0  0  0
   -5.5997  -23.1114   33.0253 H   0  0  0  0  0  0  0  0  0  0  0  0
   -5.4103  -24.3039   28.1323 H   0  0  0  0  0  0  0  0  0  0  0  0
   -8.0397  -21.1092   26.3083 H   0  0  0  0  0  0  0  0  0  0  0  0
   -6.8696  -19.8443   26.6148 H   0  0  0  0  0  0  0  0  0  0  0  0
   -6.6130  -22.0170   24.4949 H   0  0  0  0  0  0  0  0  0  0  0  0
   -6.8211  -20.3370   24.3384 H   0  0  0  0  0  0  0  0  0  0  0  0
  1  2  2  0
  2  3  1  0
  3  4  1  0
  4  5  2  0
  5  6  1  0
  6  7  2  0
  7  8  1  0
  8  9  1  0
  9 10  1  0
 10 11  2  0
 11 12  1  0
  2 13  1  0
 13 14  1  0
 14 15  1  0
 15 16  1  0
 16 17  1  0
 17 18  1  0
 18 19  2  0
 19 20  1  0
 20 21  2  0
 16 22  1  0
 22 23  1  0
 12  4  1  0
 23 13  1  0
 12  8  2  0
 21 17  1  0
  3 24  1  0
  5 25  1  0
  6 26  1  0
  7 27  1  0
  9 28  1  0
 10 29  1  0
 11 30  1  0
 14 31  1  0
 14 32  1  0
 15 33  1  0
 15 34  1  0
 16 35  1  0
 18 36  1  0
 19 37  1  0
 21 38  1  0
 22 39  1  0
 22 40  1  0
 23 41  1  0
 23 42  1  0
M  END
>  <Energy>  (444) 
915.04136469570597

>  <compound_id>  (444) 
36896

>  <target_id>  (444) 
1

>  <reference_id>  (444) 
97

>  <inspiration_ids>  (444) 
[97, 35]

>  <energy_score>  (444) 
896.2955485601336

>  <distance_score>  (444) 
18.906249777335095

>  <path>  (444) 
/opt/xchem-fragalysis-2/maxwin/BulkDock/SCRATCH/511015/C36896-P97/C36896-P97.minimised.mol

>  <scratch_subdir>  (444) 
/opt/xchem-fragalysis-2/maxwin/BulkDock/SCRATCH/511015/C36896-P97

>  <fragmenstein_runtime>  (444) 
10.769160747528076

>  <fragmenstein_outcome>  (444) 
too moved

>  <fragmenstein_mode>  (444) 
expansion

>  <fragmenstein_error>  (444) 


$$$$
C36896-P35
     RDKit          3D

 42 45  0  0  0  0  0  0  0  0999 V2000
    8.9107  -14.3294   18.8900 O   0  0  0  0  0  0  0  0  0  0  0  0
    7.9031  -14.1876   18.2989 C   0  0  0  0  0  0  0  0  0  0  0  0
    7.6322  -13.4979   17.0261 N   0  0  0  0  0  0  0  0  0  0  0  0
    8.4769  -12.7292   16.1920 C   0  0  0  0  0  0  0  0  0  0  0  0
    7.9252  -12.4094   14.9374 C   0  0  0  0  0  0  0  0  0  0  0  0
    8.6749  -11.8189   13.9277 C   0  0  0  0  0  0  0  0  0  0  0  0
   10.0020  -11.4739   14.1374 C   0  0  0  0  0  0  0  0  0  0  0  0
   10.5286  -11.6569   15.4147 C   0  0  0  0  0  0  0  0  0  0  0  0
   11.7879  -11.3508   15.8834 N   0  0  0  0  0  0  0  0  0  0  0  0
   11.9298  -11.8450   17.1476 C   0  0  0  0  0  0  0  0  0  0  0  0
   10.7031  -12.3076   17.5583 C   0  0  0  0  0  0  0  0  0  0  0  0
    9.8049  -12.2749   16.4522 C   0  0  0  0  0  0  0  0  0  0  0  0
    6.5107  -14.5683   18.6695 N   0  0  0  0  0  0  0  0  0  0  0  0
    6.1920  -15.9958   18.1539 C   0  0  0  0  0  0  0  0  0  0  0  0
    4.8056  -16.7142   18.3954 C   0  0  0  0  0  0  0  0  0  0  0  0
    3.7608  -15.7570   18.9417 C   0  0  0  0  0  0  0  0  0  0  0  0
    3.2326  -14.9353   17.8549 N   0  0  0  0  0  0  0  0  0  0  0  0
    3.7084  -13.7547   17.3536 C   0  0  0  0  0  0  0  0  0  0  0  0
    2.8900  -13.4492   16.2923 C   0  0  0  0  0  0  0  0  0  0  0  0
    1.9136  -14.3950   16.1493 N   0  0  0  0  0  0  0  0  0  0  0  0
    2.1463  -15.2800   17.0912 C   0  0  0  0  0  0  0  0  0  0  0  0
    4.4511  -15.0210   20.0788 C   0  0  0  0  0  0  0  0  0  0  0  0
    5.9767  -15.1289   19.9226 C   0  0  0  0  0  0  0  0  0  0  0  0
    6.6676  -13.6419   16.7701 H   0  0  0  0  0  0  0  0  0  0  0  0
    6.8997  -12.6885   14.7053 H   0  0  0  0  0  0  0  0  0  0  0  0
    8.2216  -11.6310   12.9572 H   0  0  0  0  0  0  0  0  0  0  0  0
   10.5862  -11.0665   13.3225 H   0  0  0  0  0  0  0  0  0  0  0  0
   12.5253  -10.8962   15.3542 H   0  0  0  0  0  0  0  0  0  0  0  0
   12.8856  -11.8293   17.6543 H   0  0  0  0  0  0  0  0  0  0  0  0
   10.5095  -12.7207   18.5372 H   0  0  0  0  0  0  0  0  0  0  0  0
    6.2718  -15.8879   17.0614 H   0  0  0  0  0  0  0  0  0  0  0  0
    7.0301  -16.6748   18.3894 H   0  0  0  0  0  0  0  0  0  0  0  0
    4.9648  -17.5278   19.1169 H   0  0  0  0  0  0  0  0  0  0  0  0
    4.4827  -17.2009   17.4667 H   0  0  0  0  0  0  0  0  0  0  0  0
    2.8998  -16.3137   19.3273 H   0  0  0  0  0  0  0  0  0  0  0  0
    4.5472  -13.2231   17.7774 H   0  0  0  0  0  0  0  0  0  0  0  0
    2.9439  -12.5903   15.6351 H   0  0  0  0  0  0  0  0  0  0  0  0
    1.5663  -16.1777   17.2659 H   0  0  0  0  0  0  0  0  0  0  0  0
    4.2194  -15.4922   21.0317 H   0  0  0  0  0  0  0  0  0  0  0  0
    4.1473  -13.9748   20.1486 H   0  0  0  0  0  0  0  0  0  0  0  0
    6.3880  -14.4163   20.6429 H   0  0  0  0  0  0  0  0  0  0  0  0
    6.4353  -16.0600   20.3041 H   0  0  0  0  0  0  0  0  0  0  0  0
  1  2  2  0
  2  3  1  0
  3  4  1  0
  4  5  2  0
  5  6  1  0
  6  7  2  0
  7  8  1  0
  8  9  1  0
  9 10  1  0
 10 11  2  0
 11 12  1  0
  2 13  1  0
 13 14  1  0
 14 15  1  0
 15 16  1  0
 16 17  1  0
 17 18  1  0
 18 19  2  0
 19 20  1  0
 20 21  2  0
 16 22  1  0
 22 23  1  0
 12  4  1  0
 23 13  1  0
 12  8  2  0
 21 17  1  0
  3 24  1  0
  5 25  1  0
  6 26  1  0
  7 27  1  0
  9 28  1  0
 10 29  1  0
 11 30  1  0
 14 31  1  0
 14 32  1  0
 15 33  1  0
 15 34  1  0
 16 35  1  0
 18 36  1  0
 19 37  1  0
 21 38  1  0
 22 39  1  0
 22 40  1  0
 23 41  1  0
 23 42  1  0
M  END
>  <Energy>  (445) 
45.166587503006888

>  <compound_id>  (445) 
36896

>  <target_id>  (445) 
1

>  <reference_id>  (445) 
35

>  <inspiration_ids>  (445) 
[97, 35]

>  <energy_score>  (445) 
26.42077136743319

>  <distance_score>  (445) 
17.547734329517148

>  <path>  (445) 
/opt/xchem-fragalysis-2/maxwin/BulkDock/SCRATCH/511015/C36896-P35/C36896-P35.minimised.mol

>  <scratch_subdir>  (445) 
/opt/xchem-fragalysis-2/maxwin/BulkDock/SCRATCH/511015/C36896-P35

>  <fragmenstein_runtime>  (445) 
43.69193124771118

>  <fragmenstein_outcome>  (445) 
too moved

>  <fragmenstein_mode>  (445) 
expansion

>  <fragmenstein_error>  (445) 


$$$$
C36897-P97
     RDKit          3D

 36 39  0  0  0  0  0  0  0  0999 V2000
   -1.9723  -13.9596   29.4869 O   0  0  0  0  0  0  0  0  0  0  0  0
   -1.2262  -14.8518   29.7818 C   0  0  0  0  0  0  0  0  0  0  0  0
    0.2306  -14.9225   29.7527 N   0  0  0  0  0  0  0  0  0  0  0  0
    1.2099  -13.9267   29.4568 C   0  0  0  0  0  0  0  0  0  0  0  0
    2.5584  -14.1720   29.8042 C   0  0  0  0  0  0  0  0  0  0  0  0
    3.5187  -13.1505   29.8816 C   0  0  0  0  0  0  0  0  0  0  0  0
    3.1602  -11.8255   29.6660 C   0  0  0  0  0  0  0  0  0  0  0  0
    1.8814  -11.6159   29.1369 C   0  0  0  0  0  0  0  0  0  0  0  0
    1.2780  -10.4589   28.7336 N   0  0  0  0  0  0  0  0  0  0  0  0
    0.0446  -10.6857   28.2301 C   0  0  0  0  0  0  0  0  0  0  0  0
   -0.1487  -12.0375   28.2371 C   0  0  0  0  0  0  0  0  0  0  0  0
    0.9416  -12.6376   28.9330 C   0  0  0  0  0  0  0  0  0  0  0  0
   -1.9695  -16.0821   30.3176 C   0  0  0  0  0  0  0  0  0  0  0  0
   -3.2696  -15.8931   30.8300 C   0  0  0  0  0  0  0  0  0  0  0  0
   -4.0012  -16.9738   31.2983 C   0  0  0  0  0  0  0  0  0  0  0  0
   -3.5284  -18.2322   31.2967 N   0  0  0  0  0  0  0  0  0  0  0  0
   -2.2886  -18.4312   30.7808 C   0  0  0  0  0  0  0  0  0  0  0  0
   -1.8202  -19.7762   30.7560 N   0  0  0  0  0  0  0  0  0  0  0  0
   -2.4875  -20.8667   31.2745 C   0  0  0  0  0  0  0  0  0  0  0  0
   -1.6865  -21.9549   31.0314 C   0  0  0  0  0  0  0  0  0  0  0  0
   -0.5478  -21.5783   30.3746 N   0  0  0  0  0  0  0  0  0  0  0  0
   -0.6513  -20.2747   30.2286 C   0  0  0  0  0  0  0  0  0  0  0  0
   -1.4863  -17.3924   30.2792 C   0  0  0  0  0  0  0  0  0  0  0  0
    0.5261  -15.8002   30.1490 H   0  0  0  0  0  0  0  0  0  0  0  0
    2.8543  -15.1707   30.1191 H   0  0  0  0  0  0  0  0  0  0  0  0
    4.5259  -13.3921   30.2134 H   0  0  0  0  0  0  0  0  0  0  0  0
    3.8657  -11.0184   29.8199 H   0  0  0  0  0  0  0  0  0  0  0  0
    1.6053   -9.5333   28.9265 H   0  0  0  0  0  0  0  0  0  0  0  0
   -0.5955   -9.8711   27.9403 H   0  0  0  0  0  0  0  0  0  0  0  0
   -1.0429  -12.5339   27.8837 H   0  0  0  0  0  0  0  0  0  0  0  0
   -3.7160  -14.9010   30.8550 H   0  0  0  0  0  0  0  0  0  0  0  0
   -5.0070  -16.8491   31.6912 H   0  0  0  0  0  0  0  0  0  0  0  0
   -3.4434  -20.7626   31.7700 H   0  0  0  0  0  0  0  0  0  0  0  0
   -1.8695  -22.9880   31.2983 H   0  0  0  0  0  0  0  0  0  0  0  0
    0.0940  -19.6636   29.7410 H   0  0  0  0  0  0  0  0  0  0  0  0
   -0.5191  -17.5909   29.8383 H   0  0  0  0  0  0  0  0  0  0  0  0
  1  2  2  0
  2  3  1  0
  3  4  1  0
  4  5  2  0
  5  6  1  0
  6  7  2  0
  7  8  1  0
  8  9  1  0
  9 10  1  0
 10 11  2  0
 11 12  1  0
  2 13  1  0
 13 14  2  0
 14 15  1  0
 15 16  2  0
 16 17  1  0
 17 18  1  0
 18 19  1  0
 19 20  2  0
 20 21  1  0
 21 22  2  0
 17 23  2  0
 12  4  1  0
 23 13  1  0
 12  8  2  0
 22 18  1  0
  3 24  1  0
  5 25  1  0
  6 26  1  0
  7 27  1  0
  9 28  1  0
 10 29  1  0
 11 30  1  0
 14 31  1  0
 15 32  1  0
 19 33  1  0
 20 34  1  0
 22 35  1  0
 23 36  1  0
M  END
>  <Energy>  (446) 
65.849056345567917

>  <compound_id>  (446) 
36897

>  <target_id>  (446) 
1

>  <reference_id>  (446) 
97

>  <inspiration_ids>  (446) 
[97, 35]

>  <energy_score>  (446) 
-30.323839541525956

>  <distance_score>  (446) 
17.545270544812574

>  <path>  (446) 
/opt/xchem-fragalysis-2/maxwin/BulkDock/SCRATCH/511015/C36897-P97/C36897-P97.minimised.mol

>  <scratch_subdir>  (446) 
/opt/xchem-fragalysis-2/maxwin/BulkDock/SCRATCH/511015/C36897-P97

>  <fragmenstein_runtime>  (446) 
10.780183553695679

>  <fragmenstein_outcome>  (446) 
too moved

>  <fragmenstein_mode>  (446) 
expansion

>  <fragmenstein_error>  (446) 


$$$$
C36897-P35
     RDKit          3D

 36 39  0  0  0  0  0  0  0  0999 V2000
   -2.8682  -17.1503   25.3782 O   0  0  0  0  0  0  0  0  0  0  0  0
   -3.2053  -16.0033   25.5130 C   0  0  0  0  0  0  0  0  0  0  0  0
   -2.5228  -14.7435   25.1395 N   0  0  0  0  0  0  0  0  0  0  0  0
   -0.9181  -14.4507   24.4666 C   0  0  0  0  0  0  0  0  0  0  0  0
   -1.0366  -13.3758   25.4107 C   0  0  0  0  0  0  0  0  0  0  0  0
    0.5091  -12.8653   26.2864 C   0  0  0  0  0  0  0  0  0  0  0  0
    1.6007  -13.5608   26.3638 C   0  0  0  0  0  0  0  0  0  0  0  0
    1.7924  -13.1635   25.1245 C   0  0  0  0  0  0  0  0  0  0  0  0
    3.1809  -13.3992   24.3224 N   0  0  0  0  0  0  0  0  0  0  0  0
    3.0699  -12.5199   23.3773 C   0  0  0  0  0  0  0  0  0  0  0  0
    1.8264  -12.2797   23.7961 C   0  0  0  0  0  0  0  0  0  0  0  0
    0.7578  -13.9212   24.0731 C   0  0  0  0  0  0  0  0  0  0  0  0
   -4.4752  -15.8100   26.2683 C   0  0  0  0  0  0  0  0  0  0  0  0
   -4.5125  -14.9853   27.3873 C   0  0  0  0  0  0  0  0  0  0  0  0
   -5.7263  -14.8069   28.0133 C   0  0  0  0  0  0  0  0  0  0  0  0
   -6.8661  -15.3983   27.6029 N   0  0  0  0  0  0  0  0  0  0  0  0
   -6.7964  -16.2826   26.5787 C   0  0  0  0  0  0  0  0  0  0  0  0
   -8.0123  -16.8823   26.1682 N   0  0  0  0  0  0  0  0  0  0  0  0
   -8.2359  -17.8567   25.2229 C   0  0  0  0  0  0  0  0  0  0  0  0
   -9.5959  -18.0672   25.2198 C   0  0  0  0  0  0  0  0  0  0  0  0
  -10.2224  -17.2598   26.1358 N   0  0  0  0  0  0  0  0  0  0  0  0
   -9.2539  -16.5326   26.6494 C   0  0  0  0  0  0  0  0  0  0  0  0
   -5.6142  -16.5345   25.8976 C   0  0  0  0  0  0  0  0  0  0  0  0
   -3.0654  -13.9582   25.4806 H   0  0  0  0  0  0  0  0  0  0  0  0
   -1.9362  -12.7606   25.5680 H   0  0  0  0  0  0  0  0  0  0  0  0
    0.7197  -11.8898   26.7658 H   0  0  0  0  0  0  0  0  0  0  0  0
    2.4163  -13.6746   27.0562 H   0  0  0  0  0  0  0  0  0  0  0  0
    3.9457  -13.6636   24.9212 H   0  0  0  0  0  0  0  0  0  0  0  0
    3.7459  -11.9953   22.7654 H   0  0  0  0  0  0  0  0  0  0  0  0
    1.2429  -11.6049   23.1607 H   0  0  0  0  0  0  0  0  0  0  0  0
   -3.6289  -14.4879   27.7679 H   0  0  0  0  0  0  0  0  0  0  0  0
   -5.8206  -14.1466   28.8719 H   0  0  0  0  0  0  0  0  0  0  0  0
   -7.4450  -18.3290   24.6609 H   0  0  0  0  0  0  0  0  0  0  0  0
  -10.1549  -18.7748   24.6199 H   0  0  0  0  0  0  0  0  0  0  0  0
   -9.3779  -15.7331   27.3680 H   0  0  0  0  0  0  0  0  0  0  0  0
   -5.5556  -17.2235   25.0634 H   0  0  0  0  0  0  0  0  0  0  0  0
  1  2  2  0
  2  3  1  0
  3  4  1  0
  4  5  2  0
  5  6  1  0
  6  7  2  0
  7  8  1  0
  8  9  1  0
  9 10  1  0
 10 11  2  0
 11 12  1  0
  2 13  1  0
 13 14  2  0
 14 15  1  0
 15 16  2  0
 16 17  1  0
 17 18  1  0
 18 19  1  0
 19 20  2  0
 20 21  1  0
 21 22  2  0
 17 23  2  0
 12  4  1  0
 23 13  1  0
 12  8  2  0
 22 18  1  0
  3 24  1  0
  5 25  1  0
  6 26  1  0
  7 27  1  0
  9 28  1  0
 10 29  1  0
 11 30  1  0
 14 31  1  0
 15 32  1  0
 19 33  1  0
 20 34  1  0
 22 35  1  0
 23 36  1  0
M  END
>  <Energy>  (447) 
624.77456729929634

>  <compound_id>  (447) 
36897

>  <target_id>  (447) 
1

>  <reference_id>  (447) 
35

>  <inspiration_ids>  (447) 
[97, 35]

>  <energy_score>  (447) 
528.6016714122002

>  <distance_score>  (447) 
16.353823344877657

>  <path>  (447) 
/opt/xchem-fragalysis-2/maxwin/BulkDock/SCRATCH/511015/C36897-P35/C36897-P35.minimised.mol

>  <scratch_subdir>  (447) 
/opt/xchem-fragalysis-2/maxwin/BulkDock/SCRATCH/511015/C36897-P35

>  <fragmenstein_runtime>  (447) 
29.57311725616455

>  <fragmenstein_outcome>  (447) 
too moved

>  <fragmenstein_mode>  (447) 
expansion

>  <fragmenstein_error>  (447) 


$$$$
C69399-P97
     RDKit          3D

 40 42  0  0  0  0  0  0  0  0999 V2000
   -2.9799  -15.3214   24.8140 C   0  0  0  0  0  0  0  0  0  0  0  0
   -1.7380  -15.7481   24.5316 C   0  0  0  0  0  0  0  0  0  0  0  0
   -2.1159  -17.5208   25.6820 C   0  0  0  0  0  0  0  0  0  0  0  0
   -2.5387  -19.3075   25.7504 N   0  0  0  0  0  0  0  0  0  0  0  0
   -3.5111  -20.2946   25.0254 C   0  0  0  0  0  0  0  0  0  0  0  0
   -3.3865  -21.5688   25.4732 C   0  0  0  0  0  0  0  0  0  0  0  0
   -2.6261  -21.5031   26.5871 N   0  0  0  0  0  0  0  0  0  0  0  0
   -2.1274  -20.2054   26.6925 C   0  0  0  0  0  0  0  0  0  0  0  0
   -0.5995  -14.2725   24.4419 N   0  0  0  0  0  0  0  0  0  0  0  0
    1.0359  -14.1114   23.8470 C   0  0  0  0  0  0  0  0  0  0  0  0
    1.6386  -14.9667   23.3113 O   0  0  0  0  0  0  0  0  0  0  0  0
    2.1566  -12.6300   24.0334 C   0  0  0  0  0  0  0  0  0  0  0  0
    3.0897  -12.1965   22.9273 C   0  0  0  0  0  0  0  0  0  0  0  0
    4.4945  -11.2364   22.1499 C   0  0  0  0  0  0  0  0  0  0  0  0
    5.6522  -10.5661   22.9559 C   0  0  0  0  0  0  0  0  0  0  0  0
    7.0776  -10.5849   22.5882 C   0  0  0  0  0  0  0  0  0  0  0  0
    7.4733  -11.0986   21.3225 C   0  0  0  0  0  0  0  0  0  0  0  0
    8.6725  -10.9466   20.6474 N   0  0  0  0  0  0  0  0  0  0  0  0
    8.5924  -11.5004   19.3992 C   0  0  0  0  0  0  0  0  0  0  0  0
    7.3430  -12.0670   19.2700 C   0  0  0  0  0  0  0  0  0  0  0  0
    6.5977  -11.7856   20.4550 C   0  0  0  0  0  0  0  0  0  0  0  0
    5.1870  -11.9495   20.8426 C   0  0  0  0  0  0  0  0  0  0  0  0
   -3.4863  -16.1311   25.1762 H   0  0  0  0  0  0  0  0  0  0  0  0
   -2.6523  -14.5894   25.5861 H   0  0  0  0  0  0  0  0  0  0  0  0
   -3.5606  -15.1437   23.8937 H   0  0  0  0  0  0  0  0  0  0  0  0
   -1.8387  -15.3699   23.5654 H   0  0  0  0  0  0  0  0  0  0  0  0
   -2.6064  -17.2224   26.6357 H   0  0  0  0  0  0  0  0  0  0  0  0
   -1.1385  -17.8458   26.1271 H   0  0  0  0  0  0  0  0  0  0  0  0
   -4.2922  -19.9281   24.3865 H   0  0  0  0  0  0  0  0  0  0  0  0
   -3.9205  -22.4587   25.1731 H   0  0  0  0  0  0  0  0  0  0  0  0
   -1.3815  -20.0059   27.4259 H   0  0  0  0  0  0  0  0  0  0  0  0
   -0.8577  -13.4329   24.9313 H   0  0  0  0  0  0  0  0  0  0  0  0
    2.8841  -13.2737   24.5491 H   0  0  0  0  0  0  0  0  0  0  0  0
    2.6977  -11.2386   23.0480 H   0  0  0  0  0  0  0  0  0  0  0  0
    5.4713   -9.8698   23.7560 H   0  0  0  0  0  0  0  0  0  0  0  0
    7.7887  -10.0313   23.1978 H   0  0  0  0  0  0  0  0  0  0  0  0
    9.4735  -10.4487   21.0080 H   0  0  0  0  0  0  0  0  0  0  0  0
    9.4251  -11.4547   18.7099 H   0  0  0  0  0  0  0  0  0  0  0  0
    6.9627  -12.5647   18.3863 H   0  0  0  0  0  0  0  0  0  0  0  0
    4.5872  -12.6556   20.2668 H   0  0  0  0  0  0  0  0  0  0  0  0
  1  2  1  0
  2  3  1  0
  3  4  1  0
  4  5  1  0
  5  6  2  0
  6  7  1  0
  7  8  2  0
  2  9  1  0
  9 10  1  0
 10 11  2  0
 10 12  1  0
 12 13  2  3
 13 14  1  0
 14 15  2  0
 15 16  1  0
 16 17  2  0
 17 18  1  0
 18 19  1  0
 19 20  2  0
 20 21  1  0
 21 22  2  0
  8  4  1  0
 22 14  1  0
 21 17  1  0
  1 23  1  0
  1 24  1  0
  1 25  1  0
  2 26  1  0
  3 27  1  0
  3 28  1  0
  5 29  1  0
  6 30  1  0
  8 31  1  0
  9 32  1  0
 12 33  1  0
 13 34  1  0
 15 35  1  0
 16 36  1  0
 18 37  1  0
 19 38  1  0
 20 39  1  0
 22 40  1  0
M  END
>  <Energy>  (448) 
649.80993684522593

>  <compound_id>  (448) 
69399

>  <target_id>  (448) 
1

>  <reference_id>  (448) 
97

>  <inspiration_ids>  (448) 
[97, 35]

>  <energy_score>  (448) 
625.2846603899161

>  <distance_score>  (448) 
12.572240896221931

>  <path>  (448) 
/opt/xchem-fragalysis-2/maxwin/BulkDock/SCRATCH/511015/C69399-P97/C69399-P97.minimised.mol

>  <scratch_subdir>  (448) 
/opt/xchem-fragalysis-2/maxwin/BulkDock/SCRATCH/511015/C69399-P97

>  <fragmenstein_runtime>  (448) 
16.37607979774475

>  <fragmenstein_outcome>  (448) 
too moved

>  <fragmenstein_mode>  (448) 
expansion

>  <fragmenstein_error>  (448) 


$$$$
C69399-P35
     RDKit          3D

 40 42  0  0  0  0  0  0  0  0999 V2000
   -0.6678  -17.3072   19.8251 C   0  0  0  0  0  0  0  0  0  0  0  0
   -0.3591  -17.8664   18.4401 C   0  0  0  0  0  0  0  0  0  0  0  0
   -1.6496  -18.7015   18.0131 C   0  0  0  0  0  0  0  0  0  0  0  0
   -2.1585  -19.7780   18.8994 N   0  0  0  0  0  0  0  0  0  0  0  0
   -3.4773  -20.1838   18.9914 C   0  0  0  0  0  0  0  0  0  0  0  0
   -3.4964  -21.2381   19.8804 C   0  0  0  0  0  0  0  0  0  0  0  0
   -2.2342  -21.4945   20.3391 N   0  0  0  0  0  0  0  0  0  0  0  0
   -1.4546  -20.6249   19.7236 C   0  0  0  0  0  0  0  0  0  0  0  0
    0.2325  -16.6743   17.6432 N   0  0  0  0  0  0  0  0  0  0  0  0
    1.5435  -16.5065   16.9887 C   0  0  0  0  0  0  0  0  0  0  0  0
    2.4476  -17.2833   16.8402 O   0  0  0  0  0  0  0  0  0  0  0  0
    1.8645  -15.0258   16.4890 C   0  0  0  0  0  0  0  0  0  0  0  0
    3.1496  -14.5260   16.5294 C   0  0  0  0  0  0  0  0  0  0  0  0
    3.8750  -13.2499   16.0821 C   0  0  0  0  0  0  0  0  0  0  0  0
    5.2450  -13.1112   16.4039 C   0  0  0  0  0  0  0  0  0  0  0  0
    6.0585  -12.0473   15.9454 C   0  0  0  0  0  0  0  0  0  0  0  0
    5.4558  -11.0676   15.1561 C   0  0  0  0  0  0  0  0  0  0  0  0
    5.9935  -10.0010   14.4764 N   0  0  0  0  0  0  0  0  0  0  0  0
    5.0113   -9.2564   13.8846 C   0  0  0  0  0  0  0  0  0  0  0  0
    3.8209   -9.9065   14.1132 C   0  0  0  0  0  0  0  0  0  0  0  0
    4.0944  -11.0902   14.8692 C   0  0  0  0  0  0  0  0  0  0  0  0
    3.3167  -12.2085   15.3111 C   0  0  0  0  0  0  0  0  0  0  0  0
   -1.5441  -16.6523   19.7767 H   0  0  0  0  0  0  0  0  0  0  0  0
   -0.8538  -18.0952   20.5561 H   0  0  0  0  0  0  0  0  0  0  0  0
    0.1590  -16.7178   20.2105 H   0  0  0  0  0  0  0  0  0  0  0  0
    0.4652  -18.5833   18.5050 H   0  0  0  0  0  0  0  0  0  0  0  0
   -2.4854  -18.0065   17.8642 H   0  0  0  0  0  0  0  0  0  0  0  0
   -1.4510  -19.1877   17.0507 H   0  0  0  0  0  0  0  0  0  0  0  0
   -4.2651  -19.7006   18.4317 H   0  0  0  0  0  0  0  0  0  0  0  0
   -4.3490  -21.8140   20.2156 H   0  0  0  0  0  0  0  0  0  0  0  0
   -0.3805  -20.5605   19.8481 H   0  0  0  0  0  0  0  0  0  0  0  0
   -0.3142  -15.8330   17.5109 H   0  0  0  0  0  0  0  0  0  0  0  0
    1.0314  -14.4711   16.0820 H   0  0  0  0  0  0  0  0  0  0  0  0
    3.8723  -15.2192   16.9756 H   0  0  0  0  0  0  0  0  0  0  0  0
    5.7279  -13.8756   17.0140 H   0  0  0  0  0  0  0  0  0  0  0  0
    7.1171  -12.0194   16.1806 H   0  0  0  0  0  0  0  0  0  0  0  0
    6.9846   -9.8450   14.3452 H   0  0  0  0  0  0  0  0  0  0  0  0
    5.2539   -8.3783   13.3061 H   0  0  0  0  0  0  0  0  0  0  0  0
    2.8561   -9.6016   13.7314 H   0  0  0  0  0  0  0  0  0  0  0  0
    2.2750  -12.2544   15.0102 H   0  0  0  0  0  0  0  0  0  0  0  0
  1  2  1  0
  2  3  1  0
  3  4  1  0
  4  5  1  0
  5  6  2  0
  6  7  1  0
  7  8  2  0
  2  9  1  0
  9 10  1  0
 10 11  2  0
 10 12  1  0
 12 13  2  3
 13 14  1  0
 14 15  2  0
 15 16  1  0
 16 17  2  0
 17 18  1  0
 18 19  1  0
 19 20  2  0
 20 21  1  0
 21 22  2  0
  8  4  1  0
 22 14  1  0
 21 17  1  0
  1 23  1  0
  1 24  1  0
  1 25  1  0
  2 26  1  0
  3 27  1  0
  3 28  1  0
  5 29  1  0
  6 30  1  0
  8 31  1  0
  9 32  1  0
 12 33  1  0
 13 34  1  0
 15 35  1  0
 16 36  1  0
 18 37  1  0
 19 38  1  0
 20 39  1  0
 22 40  1  0
M  END
>  <Energy>  (449) 
38.600469840590058

>  <compound_id>  (449) 
69399

>  <target_id>  (449) 
1

>  <reference_id>  (449) 
35

>  <inspiration_ids>  (449) 
[97, 35]

>  <energy_score>  (449) 
14.07519338527527

>  <distance_score>  (449) 
14.171834485519993

>  <path>  (449) 
/opt/xchem-fragalysis-2/maxwin/BulkDock/SCRATCH/511015/C69399-P35/C69399-P35.minimised.mol

>  <scratch_subdir>  (449) 
/opt/xchem-fragalysis-2/maxwin/BulkDock/SCRATCH/511015/C69399-P35

>  <fragmenstein_runtime>  (449) 
36.45628595352173

>  <fragmenstein_outcome>  (449) 
too moved

>  <fragmenstein_mode>  (449) 
expansion

>  <fragmenstein_error>  (449) 


$$$$
C69400-P97
     RDKit          3D

 33 35  0  0  0  0  0  0  0  0999 V2000
   -4.4191  -10.7232   18.9391 O   0  0  0  0  0  0  0  0  0  0  0  0
   -3.2310  -10.6917   19.0793 C   0  0  0  0  0  0  0  0  0  0  0  0
   -2.2924  -11.7279   19.5052 N   0  0  0  0  0  0  0  0  0  0  0  0
   -2.5244  -13.0783   19.9874 C   0  0  0  0  0  0  0  0  0  0  0  0
   -2.1915  -14.9976   20.0467 C   0  0  0  0  0  0  0  0  0  0  0  0
   -2.9855  -16.3892   20.0716 N   0  0  0  0  0  0  0  0  0  0  0  0
   -4.2826  -16.7677   20.4250 C   0  0  0  0  0  0  0  0  0  0  0  0
   -4.2936  -18.1362   20.5860 C   0  0  0  0  0  0  0  0  0  0  0  0
   -3.0645  -18.6528   20.3294 N   0  0  0  0  0  0  0  0  0  0  0  0
   -2.3208  -17.6200   19.9822 C   0  0  0  0  0  0  0  0  0  0  0  0
   -2.5571   -9.3951   18.9072 C   0  0  0  0  0  0  0  0  0  0  0  0
   -1.9535   -8.9147   20.1005 C   0  0  0  0  0  0  0  0  0  0  0  0
   -0.8003   -8.1746   20.0523 C   0  0  0  0  0  0  0  0  0  0  0  0
   -0.2723   -7.9968   18.7891 C   0  0  0  0  0  0  0  0  0  0  0  0
   -1.0812   -8.0501   17.6182 C   0  0  0  0  0  0  0  0  0  0  0  0
   -0.9382   -7.6858   16.2391 C   0  0  0  0  0  0  0  0  0  0  0  0
   -2.1227   -7.9746   15.6087 C   0  0  0  0  0  0  0  0  0  0  0  0
   -2.9220   -8.6246   16.5146 N   0  0  0  0  0  0  0  0  0  0  0  0
   -2.2866   -8.7254   17.7228 C   0  0  0  0  0  0  0  0  0  0  0  0
   -1.3601  -11.3195   19.5900 H   0  0  0  0  0  0  0  0  0  0  0  0
   -1.8870  -12.8574   20.8026 H   0  0  0  0  0  0  0  0  0  0  0  0
   -3.5219  -12.8037   20.2957 H   0  0  0  0  0  0  0  0  0  0  0  0
   -1.5012  -15.2344   19.2532 H   0  0  0  0  0  0  0  0  0  0  0  0
   -1.8617  -14.9631   21.0387 H   0  0  0  0  0  0  0  0  0  0  0  0
   -5.0989  -16.0769   20.5478 H   0  0  0  0  0  0  0  0  0  0  0  0
   -5.1277  -18.7651   20.8675 H   0  0  0  0  0  0  0  0  0  0  0  0
   -1.2704  -17.6739   19.7340 H   0  0  0  0  0  0  0  0  0  0  0  0
   -2.2722   -9.3212   21.0586 H   0  0  0  0  0  0  0  0  0  0  0  0
   -0.2074   -8.0117   20.9451 H   0  0  0  0  0  0  0  0  0  0  0  0
    0.8012   -7.8757   18.7220 H   0  0  0  0  0  0  0  0  0  0  0  0
   -0.0890   -7.2144   15.7607 H   0  0  0  0  0  0  0  0  0  0  0  0
   -2.4547   -7.8107   14.5918 H   0  0  0  0  0  0  0  0  0  0  0  0
   -3.8557   -8.9755   16.3359 H   0  0  0  0  0  0  0  0  0  0  0  0
  1  2  2  0
  2  3  1  0
  3  4  1  0
  4  5  1  0
  5  6  1  0
  6  7  1  0
  7  8  2  0
  8  9  1  0
  9 10  2  0
  2 11  1  0
 11 12  2  0
 12 13  1  0
 13 14  2  0
 14 15  1  0
 15 16  1  0
 16 17  2  0
 17 18  1  0
 18 19  1  0
 10  6  1  0
 19 11  1  0
 19 15  2  0
  3 20  1  0
  4 21  1  0
  4 22  1  0
  5 23  1  0
  5 24  1  0
  7 25  1  0
  8 26  1  0
 10 27  1  0
 12 28  1  0
 13 29  1  0
 14 30  1  0
 16 31  1  0
 17 32  1  0
 18 33  1  0
M  END
>  <Energy>  (450) 
185.43289310771473

>  <compound_id>  (450) 
69400

>  <target_id>  (450) 
1

>  <reference_id>  (450) 
97

>  <inspiration_ids>  (450) 
[97, 35]

>  <energy_score>  (450) 
150.34845849031512

>  <distance_score>  (450) 
16.254357447357798

>  <path>  (450) 
/opt/xchem-fragalysis-2/maxwin/BulkDock/SCRATCH/511015/C69400-P97/C69400-P97.minimised.mol

>  <scratch_subdir>  (450) 
/opt/xchem-fragalysis-2/maxwin/BulkDock/SCRATCH/511015/C69400-P97

>  <fragmenstein_runtime>  (450) 
14.289818525314331

>  <fragmenstein_outcome>  (450) 
too moved

>  <fragmenstein_mode>  (450) 
expansion

>  <fragmenstein_error>  (450) 


$$$$
C69400-P35
     RDKit          3D

 33 35  0  0  0  0  0  0  0  0999 V2000
   -0.1305   -7.0810   20.4397 O   0  0  0  0  0  0  0  0  0  0  0  0
    0.3781   -8.1397   20.1856 C   0  0  0  0  0  0  0  0  0  0  0  0
    0.3641   -9.4181   20.9372 N   0  0  0  0  0  0  0  0  0  0  0  0
   -0.3568   -9.8208   22.1583 C   0  0  0  0  0  0  0  0  0  0  0  0
    0.0198  -11.6623   22.6529 C   0  0  0  0  0  0  0  0  0  0  0  0
   -0.3100  -13.5870   23.0291 N   0  0  0  0  0  0  0  0  0  0  0  0
   -0.3929  -14.1908   24.2971 C   0  0  0  0  0  0  0  0  0  0  0  0
   -1.6011  -14.6311   24.8696 C   0  0  0  0  0  0  0  0  0  0  0  0
   -1.9294  -15.2929   23.8129 N   0  0  0  0  0  0  0  0  0  0  0  0
   -1.1388  -14.7257   22.6488 C   0  0  0  0  0  0  0  0  0  0  0  0
    1.2192   -8.3351   18.5516 C   0  0  0  0  0  0  0  0  0  0  0  0
   -0.0051   -8.3400   17.7518 C   0  0  0  0  0  0  0  0  0  0  0  0
   -0.1734   -7.9368   16.3986 C   0  0  0  0  0  0  0  0  0  0  0  0
    0.8942   -7.4546   15.6349 C   0  0  0  0  0  0  0  0  0  0  0  0
    2.2207   -7.4323   16.1299 C   0  0  0  0  0  0  0  0  0  0  0  0
    3.1788   -6.4387   15.6325 C   0  0  0  0  0  0  0  0  0  0  0  0
    3.9895   -6.0525   16.6606 C   0  0  0  0  0  0  0  0  0  0  0  0
    3.7279   -6.8111   17.8039 N   0  0  0  0  0  0  0  0  0  0  0  0
    2.5078   -7.9555   17.5975 C   0  0  0  0  0  0  0  0  0  0  0  0
    0.9550  -10.0680   20.4812 H   0  0  0  0  0  0  0  0  0  0  0  0
   -0.1663   -9.0139   22.8559 H   0  0  0  0  0  0  0  0  0  0  0  0
   -1.4244   -9.7641   21.9047 H   0  0  0  0  0  0  0  0  0  0  0  0
    1.0883  -11.6238   22.6033 H   0  0  0  0  0  0  0  0  0  0  0  0
   -0.9157  -11.6509   21.9822 H   0  0  0  0  0  0  0  0  0  0  0  0
    0.5757  -14.0149   24.7162 H   0  0  0  0  0  0  0  0  0  0  0  0
   -2.1499  -14.6439   25.8067 H   0  0  0  0  0  0  0  0  0  0  0  0
   -1.5937  -14.7660   21.6450 H   0  0  0  0  0  0  0  0  0  0  0  0
   -0.9485   -8.5323   18.2810 H   0  0  0  0  0  0  0  0  0  0  0  0
   -1.1848   -7.8811   15.9973 H   0  0  0  0  0  0  0  0  0  0  0  0
    0.6774   -6.9820   14.6770 H   0  0  0  0  0  0  0  0  0  0  0  0
    3.0998   -5.9242   14.6823 H   0  0  0  0  0  0  0  0  0  0  0  0
    4.6790   -5.2376   16.7145 H   0  0  0  0  0  0  0  0  0  0  0  0
    3.7511   -6.3189   18.6820 H   0  0  0  0  0  0  0  0  0  0  0  0
  1  2  2  0
  2  3  1  0
  3  4  1  0
  4  5  1  0
  5  6  1  0
  6  7  1  0
  7  8  2  0
  8  9  1  0
  9 10  2  0
  2 11  1  0
 11 12  2  0
 12 13  1  0
 13 14  2  0
 14 15  1  0
 15 16  1  0
 16 17  2  0
 17 18  1  0
 18 19  1  0
 10  6  1  0
 19 11  1  0
 19 15  2  0
  3 20  1  0
  4 21  1  0
  4 22  1  0
  5 23  1  0
  5 24  1  0
  7 25  1  0
  8 26  1  0
 10 27  1  0
 12 28  1  0
 13 29  1  0
 14 30  1  0
 16 31  1  0
 17 32  1  0
 18 33  1  0
M  END
>  <Energy>  (451) 
516.37389773009249

>  <compound_id>  (451) 
69400

>  <target_id>  (451) 
1

>  <reference_id>  (451) 
35

>  <inspiration_ids>  (451) 
[97, 35]

>  <energy_score>  (451) 
481.2894631126908

>  <distance_score>  (451) 
14.925733770051446

>  <path>  (451) 
/opt/xchem-fragalysis-2/maxwin/BulkDock/SCRATCH/511015/C69400-P35/C69400-P35.minimised.mol

>  <scratch_subdir>  (451) 
/opt/xchem-fragalysis-2/maxwin/BulkDock/SCRATCH/511015/C69400-P35

>  <fragmenstein_runtime>  (451) 
24.52467918395996

>  <fragmenstein_outcome>  (451) 
too moved

>  <fragmenstein_mode>  (451) 
expansion

>  <fragmenstein_error>  (451) 


$$$$
C69404-P97
     RDKit          3D

 40 42  0  0  0  0  0  0  0  0999 V2000
    4.5270  -12.3474   20.7726 C   0  0  0  0  0  0  0  0  0  0  0  0
    4.6385  -10.7662   21.3531 N   0  0  0  0  0  0  0  0  0  0  0  0
    2.5616   -9.7164   21.6851 C   0  0  0  0  0  0  0  0  0  0  0  0
    0.7057   -9.2364   21.2867 C   0  0  0  0  0  0  0  0  0  0  0  0
   -0.6207   -9.9357   21.7117 C   0  0  0  0  0  0  0  0  0  0  0  0
   -1.8955  -10.0693   20.9979 N   0  0  0  0  0  0  0  0  0  0  0  0
   -2.3259  -11.0319   20.1186 C   0  0  0  0  0  0  0  0  0  0  0  0
   -3.6791  -10.8479   19.9525 C   0  0  0  0  0  0  0  0  0  0  0  0
   -4.1360   -9.9068   20.8311 N   0  0  0  0  0  0  0  0  0  0  0  0
   -3.0538   -9.4161   21.3926 C   0  0  0  0  0  0  0  0  0  0  0  0
    6.4532  -10.5495   19.9938 C   0  0  0  0  0  0  0  0  0  0  0  0
    8.2686   -9.4818   19.0627 C   0  0  0  0  0  0  0  0  0  0  0  0
    8.9229   -9.8062   17.2919 C   0  0  0  0  0  0  0  0  0  0  0  0
    9.7862   -8.5556   16.0415 C   0  0  0  0  0  0  0  0  0  0  0  0
   10.6345   -6.7121   16.6166 C   0  0  0  0  0  0  0  0  0  0  0  0
   10.0759   -6.1802   18.4965 C   0  0  0  0  0  0  0  0  0  0  0  0
   11.6447   -5.3578   19.2124 N   0  0  0  0  0  0  0  0  0  0  0  0
   11.5350   -5.5426   20.4554 C   0  0  0  0  0  0  0  0  0  0  0  0
    9.9593   -5.8551   19.9890 C   0  0  0  0  0  0  0  0  0  0  0  0
    9.4031   -7.8106   19.5681 C   0  0  0  0  0  0  0  0  0  0  0  0
    3.7409  -12.8398   21.3269 H   0  0  0  0  0  0  0  0  0  0  0  0
    5.5063  -12.8140   20.8422 H   0  0  0  0  0  0  0  0  0  0  0  0
    4.3823  -12.4873   19.6996 H   0  0  0  0  0  0  0  0  0  0  0  0
    2.1450   -9.4410   20.5856 H   0  0  0  0  0  0  0  0  0  0  0  0
    2.5610   -8.6907   22.4146 H   0  0  0  0  0  0  0  0  0  0  0  0
    0.6647   -8.2960   21.8778 H   0  0  0  0  0  0  0  0  0  0  0  0
    0.5631   -8.7463   20.3040 H   0  0  0  0  0  0  0  0  0  0  0  0
   -0.3678  -10.8572   22.1728 H   0  0  0  0  0  0  0  0  0  0  0  0
   -0.9431   -9.2389   22.4745 H   0  0  0  0  0  0  0  0  0  0  0  0
   -1.6701  -11.7346   19.6471 H   0  0  0  0  0  0  0  0  0  0  0  0
   -4.3498  -11.3922   19.3007 H   0  0  0  0  0  0  0  0  0  0  0  0
   -3.0419   -8.6022   22.1066 H   0  0  0  0  0  0  0  0  0  0  0  0
    6.7357  -11.6013   19.9983 H   0  0  0  0  0  0  0  0  0  0  0  0
    5.9211  -10.6862   19.0515 H   0  0  0  0  0  0  0  0  0  0  0  0
    8.6927  -10.7780   16.8430 H   0  0  0  0  0  0  0  0  0  0  0  0
   10.2654   -9.3245   15.3901 H   0  0  0  0  0  0  0  0  0  0  0  0
   11.6286   -6.3526   16.3056 H   0  0  0  0  0  0  0  0  0  0  0  0
   11.9520   -4.5806   18.6430 H   0  0  0  0  0  0  0  0  0  0  0  0
   12.0247   -4.8025   21.0865 H   0  0  0  0  0  0  0  0  0  0  0  0
    9.2008   -5.0075   20.0501 H   0  0  0  0  0  0  0  0  0  0  0  0
  1  2  1  0
  2  3  1  0
  3  4  1  0
  4  5  1  0
  5  6  1  0
  6  7  1  0
  7  8  2  0
  8  9  1  0
  9 10  2  0
  2 11  1  0
 11 12  1  0
 12 13  2  0
 13 14  1  0
 14 15  2  0
 15 16  1  0
 16 17  1  0
 17 18  1  0
 18 19  2  0
 19 20  1  0
 10  6  1  0
 20 12  1  0
 20 16  2  0
  1 21  1  0
  1 22  1  0
  1 23  1  0
  3 24  1  0
  3 25  1  0
  4 26  1  0
  4 27  1  0
  5 28  1  0
  5 29  1  0
  7 30  1  0
  8 31  1  0
 10 32  1  0
 11 33  1  0
 11 34  1  0
 13 35  1  0
 14 36  1  0
 15 37  1  0
 17 38  1  0
 18 39  1  0
 19 40  1  0
M  END
>  <Energy>  (452) 
2398.579590313771

>  <compound_id>  (452) 
69404

>  <target_id>  (452) 
1

>  <reference_id>  (452) 
97

>  <inspiration_ids>  (452) 
[97, 35]

>  <energy_score>  (452) 
2348.078148884022

>  <distance_score>  (452) 
14.453069949470157

>  <path>  (452) 
/opt/xchem-fragalysis-2/maxwin/BulkDock/SCRATCH/511015/C69404-P97/C69404-P97.minimised.mol

>  <scratch_subdir>  (452) 
/opt/xchem-fragalysis-2/maxwin/BulkDock/SCRATCH/511015/C69404-P97

>  <fragmenstein_runtime>  (452) 
11.83353042602539

>  <fragmenstein_outcome>  (452) 
too moved

>  <fragmenstein_mode>  (452) 
expansion

>  <fragmenstein_error>  (452) 


$$$$
C69404-P35
     RDKit          3D

 40 42  0  0  0  0  0  0  0  0999 V2000
   -1.1142  -12.5896   15.8730 C   0  0  0  0  0  0  0  0  0  0  0  0
   -1.9836  -11.5571   16.4123 N   0  0  0  0  0  0  0  0  0  0  0  0
   -2.6689  -12.0900   17.6865 C   0  0  0  0  0  0  0  0  0  0  0  0
   -3.2758  -13.6174   17.7697 C   0  0  0  0  0  0  0  0  0  0  0  0
   -3.8055  -14.0778   19.2153 C   0  0  0  0  0  0  0  0  0  0  0  0
   -4.3813  -15.3996   19.5208 N   0  0  0  0  0  0  0  0  0  0  0  0
   -3.7486  -16.6194   19.4878 C   0  0  0  0  0  0  0  0  0  0  0  0
   -4.5560  -17.4969   20.1855 C   0  0  0  0  0  0  0  0  0  0  0  0
   -5.6728  -16.8612   20.6544 N   0  0  0  0  0  0  0  0  0  0  0  0
   -5.5402  -15.6134   20.2505 C   0  0  0  0  0  0  0  0  0  0  0  0
   -1.4115  -10.1138   16.5545 C   0  0  0  0  0  0  0  0  0  0  0  0
   -0.1501   -9.4976   15.7490 C   0  0  0  0  0  0  0  0  0  0  0  0
    0.0579   -9.8403   14.3939 C   0  0  0  0  0  0  0  0  0  0  0  0
    1.1556   -9.3963   13.6336 C   0  0  0  0  0  0  0  0  0  0  0  0
    2.1043   -8.5230   14.1508 C   0  0  0  0  0  0  0  0  0  0  0  0
    1.8861   -8.0743   15.4485 C   0  0  0  0  0  0  0  0  0  0  0  0
    2.6290   -7.1591   16.1646 N   0  0  0  0  0  0  0  0  0  0  0  0
    2.0526   -6.9392   17.3768 C   0  0  0  0  0  0  0  0  0  0  0  0
    0.9668   -7.7860   17.4746 C   0  0  0  0  0  0  0  0  0  0  0  0
    0.8101   -8.5160   16.2489 C   0  0  0  0  0  0  0  0  0  0  0  0
   -0.4468  -12.2533   15.0824 H   0  0  0  0  0  0  0  0  0  0  0  0
   -0.5142  -13.0774   16.6420 H   0  0  0  0  0  0  0  0  0  0  0  0
   -1.7303  -13.3704   15.4116 H   0  0  0  0  0  0  0  0  0  0  0  0
   -3.5015  -11.4111   17.9059 H   0  0  0  0  0  0  0  0  0  0  0  0
   -1.9522  -11.9979   18.5093 H   0  0  0  0  0  0  0  0  0  0  0  0
   -2.4957  -14.3249   17.4696 H   0  0  0  0  0  0  0  0  0  0  0  0
   -4.0952  -13.7014   17.0472 H   0  0  0  0  0  0  0  0  0  0  0  0
   -2.9445  -13.9928   19.8858 H   0  0  0  0  0  0  0  0  0  0  0  0
   -4.5508  -13.3381   19.5314 H   0  0  0  0  0  0  0  0  0  0  0  0
   -2.7778  -16.7483   19.0309 H   0  0  0  0  0  0  0  0  0  0  0  0
   -4.3744  -18.5447   20.3828 H   0  0  0  0  0  0  0  0  0  0  0  0
   -6.2299  -14.8100   20.4725 H   0  0  0  0  0  0  0  0  0  0  0  0
   -1.2258   -9.9246   17.6117 H   0  0  0  0  0  0  0  0  0  0  0  0
   -2.2487   -9.4574   16.2834 H   0  0  0  0  0  0  0  0  0  0  0  0
   -0.6676  -10.4860   13.8998 H   0  0  0  0  0  0  0  0  0  0  0  0
    1.2540   -9.7390   12.6055 H   0  0  0  0  0  0  0  0  0  0  0  0
    2.9412   -8.1822   13.5532 H   0  0  0  0  0  0  0  0  0  0  0  0
    3.4569   -6.6995   15.8186 H   0  0  0  0  0  0  0  0  0  0  0  0
    2.4664   -6.2297   18.0805 H   0  0  0  0  0  0  0  0  0  0  0  0
    0.3247   -7.8712   18.3425 H   0  0  0  0  0  0  0  0  0  0  0  0
  1  2  1  0
  2  3  1  0
  3  4  1  0
  4  5  1  0
  5  6  1  0
  6  7  1  0
  7  8  2  0
  8  9  1  0
  9 10  2  0
  2 11  1  0
 11 12  1  0
 12 13  2  0
 13 14  1  0
 14 15  2  0
 15 16  1  0
 16 17  1  0
 17 18  1  0
 18 19  2  0
 19 20  1  0
 10  6  1  0
 20 12  1  0
 20 16  2  0
  1 21  1  0
  1 22  1  0
  1 23  1  0
  3 24  1  0
  3 25  1  0
  4 26  1  0
  4 27  1  0
  5 28  1  0
  5 29  1  0
  7 30  1  0
  8 31  1  0
 10 32  1  0
 11 33  1  0
 11 34  1  0
 13 35  1  0
 14 36  1  0
 15 37  1  0
 17 38  1  0
 18 39  1  0
 19 40  1  0
M  END
>  <Energy>  (453) 
64.304510685915744

>  <compound_id>  (453) 
69404

>  <target_id>  (453) 
1

>  <reference_id>  (453) 
35

>  <inspiration_ids>  (453) 
[97, 35]

>  <energy_score>  (453) 
13.803069256164122

>  <distance_score>  (453) 
15.175976930943134

>  <path>  (453) 
/opt/xchem-fragalysis-2/maxwin/BulkDock/SCRATCH/511015/C69404-P35/C69404-P35.minimised.mol

>  <scratch_subdir>  (453) 
/opt/xchem-fragalysis-2/maxwin/BulkDock/SCRATCH/511015/C69404-P35

>  <fragmenstein_runtime>  (453) 
16.571987628936768

>  <fragmenstein_outcome>  (453) 
too moved

>  <fragmenstein_mode>  (453) 
expansion

>  <fragmenstein_error>  (453) 


$$$$
C69406-P97
     RDKit          3D

 39 41  0  0  0  0  0  0  0  0999 V2000
    1.1558   -4.2668   20.4402 C   0  0  0  0  0  0  0  0  0  0  0  0
    1.7575   -4.9060   19.2864 N   0  0  0  0  0  0  0  0  0  0  0  0
    2.7862   -4.3246   18.5742 C   0  0  0  0  0  0  0  0  0  0  0  0
    2.7385   -4.8183   17.2971 C   0  0  0  0  0  0  0  0  0  0  0  0
    1.6612   -5.7507   17.2595 C   0  0  0  0  0  0  0  0  0  0  0  0
    1.0435   -6.4484   16.2197 C   0  0  0  0  0  0  0  0  0  0  0  0
   -0.0302   -7.2970   16.5295 C   0  0  0  0  0  0  0  0  0  0  0  0
   -0.3910   -7.6301   17.8416 C   0  0  0  0  0  0  0  0  0  0  0  0
    0.2038   -6.9910   18.9074 C   0  0  0  0  0  0  0  0  0  0  0  0
    0.2755   -7.5286   20.3260 C   0  0  0  0  0  0  0  0  0  0  0  0
   -0.1519   -6.8032   21.1812 O   0  0  0  0  0  0  0  0  0  0  0  0
    0.9693   -8.8294   20.4251 N   0  0  0  0  0  0  0  0  0  0  0  0
    1.4574   -9.5977   21.6281 C   0  0  0  0  0  0  0  0  0  0  0  0
    3.0523  -10.6586   22.7346 C   0  0  0  0  0  0  0  0  0  0  0  0
    2.6947  -12.3410   23.5887 C   0  0  0  0  0  0  0  0  0  0  0  0
    3.2978  -13.5513   24.3418 N   0  0  0  0  0  0  0  0  0  0  0  0
    3.5272  -14.7720   23.7432 C   0  0  0  0  0  0  0  0  0  0  0  0
    4.5383  -15.3970   24.4302 C   0  0  0  0  0  0  0  0  0  0  0  0
    4.8770  -14.6854   25.5100 N   0  0  0  0  0  0  0  0  0  0  0  0
    3.8059  -14.0094   25.5996 C   0  0  0  0  0  0  0  0  0  0  0  0
    1.1681   -5.9415   18.5628 C   0  0  0  0  0  0  0  0  0  0  0  0
    0.1061   -4.0628   20.2108 H   0  0  0  0  0  0  0  0  0  0  0  0
    1.6676   -3.3215   20.6411 H   0  0  0  0  0  0  0  0  0  0  0  0
    1.2323   -4.9071   21.3090 H   0  0  0  0  0  0  0  0  0  0  0  0
    3.3950   -3.5533   19.0255 H   0  0  0  0  0  0  0  0  0  0  0  0
    3.3500   -4.4985   16.4650 H   0  0  0  0  0  0  0  0  0  0  0  0
    1.3373   -6.2882   15.1869 H   0  0  0  0  0  0  0  0  0  0  0  0
   -0.5928   -7.7426   15.7174 H   0  0  0  0  0  0  0  0  0  0  0  0
   -1.1371   -8.3958   18.0348 H   0  0  0  0  0  0  0  0  0  0  0  0
    1.1135   -9.2016   19.4918 H   0  0  0  0  0  0  0  0  0  0  0  0
    1.4463   -8.6111   22.1753 H   0  0  0  0  0  0  0  0  0  0  0  0
    0.5106  -10.1990   21.7625 H   0  0  0  0  0  0  0  0  0  0  0  0
    3.6228   -9.9276   23.2688 H   0  0  0  0  0  0  0  0  0  0  0  0
    3.9158  -11.0965   22.1542 H   0  0  0  0  0  0  0  0  0  0  0  0
    1.7558  -12.2041   24.0329 H   0  0  0  0  0  0  0  0  0  0  0  0
    2.9860  -12.7398   22.6413 H   0  0  0  0  0  0  0  0  0  0  0  0
    3.1294  -14.8522   22.7927 H   0  0  0  0  0  0  0  0  0  0  0  0
    5.0984  -16.2651   24.2130 H   0  0  0  0  0  0  0  0  0  0  0  0
    3.3217  -13.9657   26.5774 H   0  0  0  0  0  0  0  0  0  0  0  0
  1  2  1  0
  2  3  1  0
  3  4  2  0
  4  5  1  0
  5  6  2  0
  6  7  1  0
  7  8  2  0
  8  9  1  0
  9 10  1  0
 10 11  2  0
 10 12  1  0
 12 13  1  0
 13 14  1  0
 14 15  1  0
 15 16  1  0
 16 17  1  0
 17 18  2  0
 18 19  1  0
 19 20  2  0
  9 21  2  0
 21  2  1  0
 21  5  1  0
 20 16  1  0
  1 22  1  0
  1 23  1  0
  1 24  1  0
  3 25  1  0
  4 26  1  0
  6 27  1  0
  7 28  1  0
  8 29  1  0
 12 30  1  0
 13 31  1  0
 13 32  1  0
 14 33  1  0
 14 34  1  0
 15 35  1  0
 15 36  1  0
 17 37  1  0
 18 38  1  0
 20 39  1  0
M  END
>  <Energy>  (454) 
352.00761607132222

>  <compound_id>  (454) 
69406

>  <target_id>  (454) 
1

>  <reference_id>  (454) 
97

>  <inspiration_ids>  (454) 
[97, 35]

>  <energy_score>  (454) 
317.4838242369244

>  <distance_score>  (454) 
15.962931329103705

>  <path>  (454) 
/opt/xchem-fragalysis-2/maxwin/BulkDock/SCRATCH/511015/C69406-P97/C69406-P97.minimised.mol

>  <scratch_subdir>  (454) 
/opt/xchem-fragalysis-2/maxwin/BulkDock/SCRATCH/511015/C69406-P97

>  <fragmenstein_runtime>  (454) 
13.683434009552002

>  <fragmenstein_outcome>  (454) 
too moved

>  <fragmenstein_mode>  (454) 
expansion

>  <fragmenstein_error>  (454) 


$$$$
C69406-P35
     RDKit          3D

 39 41  0  0  0  0  0  0  0  0999 V2000
   -0.2948   -5.6410   20.7926 C   0  0  0  0  0  0  0  0  0  0  0  0
    0.6957   -5.4697   19.7506 N   0  0  0  0  0  0  0  0  0  0  0  0
    1.7192   -4.5519   19.8218 C   0  0  0  0  0  0  0  0  0  0  0  0
    2.5045   -4.6952   18.7117 C   0  0  0  0  0  0  0  0  0  0  0  0
    1.9068   -5.7065   17.9139 C   0  0  0  0  0  0  0  0  0  0  0  0
    2.2593   -6.1905   16.6488 C   0  0  0  0  0  0  0  0  0  0  0  0
    1.3919   -7.0766   16.0304 C   0  0  0  0  0  0  0  0  0  0  0  0
    0.2287   -7.5318   16.6791 C   0  0  0  0  0  0  0  0  0  0  0  0
   -0.1281   -7.1902   18.0004 C   0  0  0  0  0  0  0  0  0  0  0  0
   -1.5602   -7.5960   18.4769 C   0  0  0  0  0  0  0  0  0  0  0  0
   -2.2985   -6.6500   18.5430 O   0  0  0  0  0  0  0  0  0  0  0  0
   -1.8242   -9.0352   18.6721 N   0  0  0  0  0  0  0  0  0  0  0  0
   -3.0746   -9.7610   19.1112 C   0  0  0  0  0  0  0  0  0  0  0  0
   -3.1574  -11.3609   18.9880 C   0  0  0  0  0  0  0  0  0  0  0  0
   -4.6157  -12.0010   19.2121 C   0  0  0  0  0  0  0  0  0  0  0  0
   -4.9023  -13.4440   19.1581 N   0  0  0  0  0  0  0  0  0  0  0  0
   -6.1588  -13.9977   19.3831 C   0  0  0  0  0  0  0  0  0  0  0  0
   -5.9742  -15.3613   19.4578 C   0  0  0  0  0  0  0  0  0  0  0  0
   -4.6541  -15.6629   19.2664 N   0  0  0  0  0  0  0  0  0  0  0  0
   -4.0509  -14.5108   19.0246 C   0  0  0  0  0  0  0  0  0  0  0  0
    0.7420   -6.1930   18.5692 C   0  0  0  0  0  0  0  0  0  0  0  0
   -0.4417   -6.7088   20.9717 H   0  0  0  0  0  0  0  0  0  0  0  0
   -1.2201   -5.1596   20.4694 H   0  0  0  0  0  0  0  0  0  0  0  0
    0.0637   -5.1719   21.7130 H   0  0  0  0  0  0  0  0  0  0  0  0
    1.8144   -3.8916   20.6738 H   0  0  0  0  0  0  0  0  0  0  0  0
    3.3852   -4.1148   18.4857 H   0  0  0  0  0  0  0  0  0  0  0  0
    3.1348   -5.8171   16.1286 H   0  0  0  0  0  0  0  0  0  0  0  0
    1.5934   -7.3859   15.0072 H   0  0  0  0  0  0  0  0  0  0  0  0
   -0.4729   -8.1303   16.1014 H   0  0  0  0  0  0  0  0  0  0  0  0
   -0.9420   -9.5466   18.6225 H   0  0  0  0  0  0  0  0  0  0  0  0
   -3.8920   -9.3175   18.5321 H   0  0  0  0  0  0  0  0  0  0  0  0
   -3.2340   -9.4814   20.1584 H   0  0  0  0  0  0  0  0  0  0  0  0
   -2.4606  -11.7985   19.7115 H   0  0  0  0  0  0  0  0  0  0  0  0
   -2.8090  -11.6555   17.9956 H   0  0  0  0  0  0  0  0  0  0  0  0
   -5.2642  -11.5685   18.4384 H   0  0  0  0  0  0  0  0  0  0  0  0
   -5.0020  -11.6501   20.1733 H   0  0  0  0  0  0  0  0  0  0  0  0
   -7.0367  -13.3770   19.4985 H   0  0  0  0  0  0  0  0  0  0  0  0
   -6.7125  -16.1306   19.6426 H   0  0  0  0  0  0  0  0  0  0  0  0
   -2.9974  -14.3953   18.8039 H   0  0  0  0  0  0  0  0  0  0  0  0
  1  2  1  0
  2  3  1  0
  3  4  2  0
  4  5  1  0
  5  6  2  0
  6  7  1  0
  7  8  2  0
  8  9  1  0
  9 10  1  0
 10 11  2  0
 10 12  1  0
 12 13  1  0
 13 14  1  0
 14 15  1  0
 15 16  1  0
 16 17  1  0
 17 18  2  0
 18 19  1  0
 19 20  2  0
  9 21  2  0
 21  2  1  0
 21  5  1  0
 20 16  1  0
  1 22  1  0
  1 23  1  0
  1 24  1  0
  3 25  1  0
  4 26  1  0
  6 27  1  0
  7 28  1  0
  8 29  1  0
 12 30  1  0
 13 31  1  0
 13 32  1  0
 14 33  1  0
 14 34  1  0
 15 35  1  0
 15 36  1  0
 17 37  1  0
 18 38  1  0
 20 39  1  0
M  END
>  <Energy>  (455) 
47.897390398351256

>  <compound_id>  (455) 
69406

>  <target_id>  (455) 
1

>  <reference_id>  (455) 
35

>  <inspiration_ids>  (455) 
[97, 35]

>  <energy_score>  (455) 
13.373598563947326

>  <distance_score>  (455) 
15.215268448532033

>  <path>  (455) 
/opt/xchem-fragalysis-2/maxwin/BulkDock/SCRATCH/511015/C69406-P35/C69406-P35.minimised.mol

>  <scratch_subdir>  (455) 
/opt/xchem-fragalysis-2/maxwin/BulkDock/SCRATCH/511015/C69406-P35

>  <fragmenstein_runtime>  (455) 
31.316799640655518

>  <fragmenstein_outcome>  (455) 
too moved

>  <fragmenstein_mode>  (455) 
expansion

>  <fragmenstein_error>  (455) 


$$$$
C47212-P97
     RDKit          3D

 48 51  0  0  0  0  0  0  0  0999 V2000
    0.8556  -16.3951   34.6278 O   0  0  0  0  0  0  0  0  0  0  0  0
   -0.0497  -16.3185   33.8817 C   0  0  0  0  0  0  0  0  0  0  0  0
   -0.0696  -16.0725   32.4419 N   0  0  0  0  0  0  0  0  0  0  0  0
    1.0278  -15.7484   31.4972 C   0  0  0  0  0  0  0  0  0  0  0  0
    1.7475  -14.4102   31.7611 C   0  0  0  0  0  0  0  0  0  0  0  0
    2.5047  -13.7694   30.6575 N   0  0  0  0  0  0  0  0  0  0  0  0
    3.8390  -13.4016   30.7603 C   0  0  0  0  0  0  0  0  0  0  0  0
    4.0289  -12.2164   30.0873 C   0  0  0  0  0  0  0  0  0  0  0  0
    2.7622  -11.8663   29.5725 C   0  0  0  0  0  0  0  0  0  0  0  0
    2.2332  -10.7258   28.9734 C   0  0  0  0  0  0  0  0  0  0  0  0
    0.9296  -10.6911   28.4926 C   0  0  0  0  0  0  0  0  0  0  0  0
    0.1819  -11.8481   28.4626 C   0  0  0  0  0  0  0  0  0  0  0  0
    0.6600  -13.0038   29.0794 C   0  0  0  0  0  0  0  0  0  0  0  0
    1.9154  -12.9575   29.7042 C   0  0  0  0  0  0  0  0  0  0  0  0
   -1.5306  -16.3449   34.1486 N   0  0  0  0  0  0  0  0  0  0  0  0
   -2.2705  -16.3617   35.4267 C   0  0  0  0  0  0  0  0  0  0  0  0
   -3.7832  -16.0823   35.3123 C   0  0  0  0  0  0  0  0  0  0  0  0
   -4.4778  -17.1892   34.5440 C   0  0  0  0  0  0  0  0  0  0  0  0
   -3.5264  -18.3615   34.6084 C   0  0  0  0  0  0  0  0  0  0  0  0
   -4.0840  -19.6755   34.1026 C   0  0  0  0  0  0  0  0  0  0  0  0
   -3.4862  -20.8476   34.2237 N   0  0  0  0  0  0  0  0  0  0  0  0
   -4.4358  -21.8000   33.9464 C   0  0  0  0  0  0  0  0  0  0  0  0
   -5.6347  -21.2098   33.6490 C   0  0  0  0  0  0  0  0  0  0  0  0
   -5.3834  -19.8635   33.6661 N   0  0  0  0  0  0  0  0  0  0  0  0
   -2.0889  -17.8808   34.0719 C   0  0  0  0  0  0  0  0  0  0  0  0
   -1.0271  -15.9882   32.1349 H   0  0  0  0  0  0  0  0  0  0  0  0
    0.5952  -15.7563   30.4952 H   0  0  0  0  0  0  0  0  0  0  0  0
    1.7534  -16.5664   31.5578 H   0  0  0  0  0  0  0  0  0  0  0  0
    2.4450  -14.5300   32.5993 H   0  0  0  0  0  0  0  0  0  0  0  0
    1.0122  -13.6603   32.0796 H   0  0  0  0  0  0  0  0  0  0  0  0
    4.5040  -13.9730   31.3947 H   0  0  0  0  0  0  0  0  0  0  0  0
    4.9425  -11.6395   30.0714 H   0  0  0  0  0  0  0  0  0  0  0  0
    2.8956   -9.9018   28.8534 H   0  0  0  0  0  0  0  0  0  0  0  0
    0.4860   -9.7602   28.1609 H   0  0  0  0  0  0  0  0  0  0  0  0
   -0.8204  -11.8445   28.0395 H   0  0  0  0  0  0  0  0  0  0  0  0
    0.0218  -13.8785   29.1529 H   0  0  0  0  0  0  0  0  0  0  0  0
   -1.9476  -17.1263   36.1537 H   0  0  0  0  0  0  0  0  0  0  0  0
   -1.8744  -15.4610   35.9229 H   0  0  0  0  0  0  0  0  0  0  0  0
   -4.2002  -16.0154   36.3245 H   0  0  0  0  0  0  0  0  0  0  0  0
   -3.9632  -15.1155   34.8327 H   0  0  0  0  0  0  0  0  0  0  0  0
   -4.6506  -16.8882   33.5060 H   0  0  0  0  0  0  0  0  0  0  0  0
   -5.4557  -17.4042   34.9887 H   0  0  0  0  0  0  0  0  0  0  0  0
   -3.3869  -18.5910   35.6787 H   0  0  0  0  0  0  0  0  0  0  0  0
   -4.2031  -22.8556   33.9905 H   0  0  0  0  0  0  0  0  0  0  0  0
   -6.6059  -21.6018   33.3850 H   0  0  0  0  0  0  0  0  0  0  0  0
   -6.0645  -19.1498   33.4361 H   0  0  0  0  0  0  0  0  0  0  0  0
   -2.0467  -18.0930   32.9957 H   0  0  0  0  0  0  0  0  0  0  0  0
   -1.3068  -18.5242   34.5066 H   0  0  0  0  0  0  0  0  0  0  0  0
  1  2  2  0
  2  3  1  0
  3  4  1  0
  4  5  1  0
  5  6  1  0
  6  7  1  0
  7  8  2  0
  8  9  1  0
  9 10  2  0
 10 11  1  0
 11 12  2  0
 12 13  1  0
 13 14  2  0
  2 15  1  0
 15 16  1  0
 16 17  1  0
 17 18  1  0
 18 19  1  0
 19 20  1  0
 20 21  2  0
 21 22  1  0
 22 23  2  0
 23 24  1  0
 19 25  1  0
 14  6  1  0
 25 15  1  0
 14  9  1  0
 24 20  1  0
  3 26  1  0
  4 27  1  0
  4 28  1  0
  5 29  1  0
  5 30  1  0
  7 31  1  0
  8 32  1  0
 10 33  1  0
 11 34  1  0
 12 35  1  0
 13 36  1  0
 16 37  1  0
 16 38  1  0
 17 39  1  0
 17 40  1  0
 18 41  1  0
 18 42  1  0
 19 43  1  0
 22 44  1  0
 23 45  1  0
 24 46  1  0
 25 47  1  0
 25 48  1  0
M  END
>  <Energy>  (456) 
67.05542150153245

>  <compound_id>  (456) 
47212

>  <target_id>  (456) 
1

>  <reference_id>  (456) 
97

>  <inspiration_ids>  (456) 
[97, 35]

>  <energy_score>  (456) 
80.91640294719127

>  <distance_score>  (456) 
15.856903594651662

>  <path>  (456) 
/opt/xchem-fragalysis-2/maxwin/BulkDock/SCRATCH/511015/C47212-P97/C47212-P97.minimised.mol

>  <scratch_subdir>  (456) 
/opt/xchem-fragalysis-2/maxwin/BulkDock/SCRATCH/511015/C47212-P97

>  <fragmenstein_runtime>  (456) 
22.057456254959106

>  <fragmenstein_outcome>  (456) 
too moved

>  <fragmenstein_mode>  (456) 
expansion

>  <fragmenstein_error>  (456) 


$$$$
C47212-P35
     RDKit          3D

 48 51  0  0  0  0  0  0  0  0999 V2000
    1.7023  -13.5077   26.3111 O   0  0  0  0  0  0  0  0  0  0  0  0
    1.0260  -13.2667   25.3453 C   0  0  0  0  0  0  0  0  0  0  0  0
    1.4584  -12.1929   23.6760 N   0  0  0  0  0  0  0  0  0  0  0  0
    2.9407  -11.1400   23.1600 C   0  0  0  0  0  0  0  0  0  0  0  0
    2.4539   -9.3322   22.0206 C   0  0  0  0  0  0  0  0  0  0  0  0
    2.3478   -7.6784   21.6045 N   0  0  0  0  0  0  0  0  0  0  0  0
    1.5889   -7.3390   20.4694 C   0  0  0  0  0  0  0  0  0  0  0  0
    2.1051   -6.2141   19.8662 C   0  0  0  0  0  0  0  0  0  0  0  0
    3.1932   -5.7585   20.6407 C   0  0  0  0  0  0  0  0  0  0  0  0
    4.1097   -4.6933   20.4725 C   0  0  0  0  0  0  0  0  0  0  0  0
    5.1146   -4.4749   21.4108 C   0  0  0  0  0  0  0  0  0  0  0  0
    5.1772   -5.2759   22.5370 C   0  0  0  0  0  0  0  0  0  0  0  0
    4.2508   -6.3141   22.7388 C   0  0  0  0  0  0  0  0  0  0  0  0
    3.2779   -6.5977   21.7696 C   0  0  0  0  0  0  0  0  0  0  0  0
   -0.9610  -13.7171   25.1080 N   0  0  0  0  0  0  0  0  0  0  0  0
   -2.0538  -14.3504   26.1457 C   0  0  0  0  0  0  0  0  0  0  0  0
   -1.9658  -15.2282   27.4555 C   0  0  0  0  0  0  0  0  0  0  0  0
   -2.2603  -16.6754   27.0315 C   0  0  0  0  0  0  0  0  0  0  0  0
   -2.4074  -16.8908   25.5081 C   0  0  0  0  0  0  0  0  0  0  0  0
   -2.2447  -18.7419   25.9292 C   0  0  0  0  0  0  0  0  0  0  0  0
   -1.4471  -19.3578   26.8109 N   0  0  0  0  0  0  0  0  0  0  0  0
   -1.9408  -20.7641   27.1676 C   0  0  0  0  0  0  0  0  0  0  0  0
   -3.0202  -21.0780   26.4305 C   0  0  0  0  0  0  0  0  0  0  0  0
   -3.1336  -20.0231   25.5666 N   0  0  0  0  0  0  0  0  0  0  0  0
   -1.6731  -15.3119   24.3967 C   0  0  0  0  0  0  0  0  0  0  0  0
    0.6169  -12.0743   23.0472 H   0  0  0  0  0  0  0  0  0  0  0  0
    3.9391  -11.2277   22.6005 H   0  0  0  0  0  0  0  0  0  0  0  0
    3.1257  -12.1594   22.7159 H   0  0  0  0  0  0  0  0  0  0  0  0
    2.7654   -8.6731   22.8692 H   0  0  0  0  0  0  0  0  0  0  0  0
    1.4005   -9.4591   21.5849 H   0  0  0  0  0  0  0  0  0  0  0  0
    0.7821   -7.9892   20.1571 H   0  0  0  0  0  0  0  0  0  0  0  0
    1.7382   -5.7799   18.9460 H   0  0  0  0  0  0  0  0  0  0  0  0
    4.0096   -4.0360   19.6155 H   0  0  0  0  0  0  0  0  0  0  0  0
    5.8040   -3.6482   21.2839 H   0  0  0  0  0  0  0  0  0  0  0  0
    5.9340   -5.0759   23.2899 H   0  0  0  0  0  0  0  0  0  0  0  0
    4.2850   -6.9030   23.6379 H   0  0  0  0  0  0  0  0  0  0  0  0
   -2.5276  -13.4333   25.7256 H   0  0  0  0  0  0  0  0  0  0  0  0
   -2.8188  -13.8288   26.6717 H   0  0  0  0  0  0  0  0  0  0  0  0
   -2.6020  -14.9846   28.2971 H   0  0  0  0  0  0  0  0  0  0  0  0
   -1.0835  -15.1285   28.0380 H   0  0  0  0  0  0  0  0  0  0  0  0
   -3.1309  -17.0618   27.5184 H   0  0  0  0  0  0  0  0  0  0  0  0
   -1.3706  -17.2553   27.2488 H   0  0  0  0  0  0  0  0  0  0  0  0
   -3.3419  -16.4460   25.4327 H   0  0  0  0  0  0  0  0  0  0  0  0
   -1.4093  -21.3190   27.9318 H   0  0  0  0  0  0  0  0  0  0  0  0
   -3.6861  -21.9260   26.3938 H   0  0  0  0  0  0  0  0  0  0  0  0
   -4.0013  -19.8486   25.0922 H   0  0  0  0  0  0  0  0  0  0  0  0
   -2.7466  -15.1656   24.1680 H   0  0  0  0  0  0  0  0  0  0  0  0
   -1.3670  -15.1872   23.3882 H   0  0  0  0  0  0  0  0  0  0  0  0
  1  2  2  0
  2  3  1  0
  3  4  1  0
  4  5  1  0
  5  6  1  0
  6  7  1  0
  7  8  2  0
  8  9  1  0
  9 10  2  0
 10 11  1  0
 11 12  2  0
 12 13  1  0
 13 14  2  0
  2 15  1  0
 15 16  1  0
 16 17  1  0
 17 18  1  0
 18 19  1  0
 19 20  1  0
 20 21  2  0
 21 22  1  0
 22 23  2  0
 23 24  1  0
 19 25  1  0
 14  6  1  0
 25 15  1  0
 14  9  1  0
 24 20  1  0
  3 26  1  0
  4 27  1  0
  4 28  1  0
  5 29  1  0
  5 30  1  0
  7 31  1  0
  8 32  1  0
 10 33  1  0
 11 34  1  0
 12 35  1  0
 13 36  1  0
 16 37  1  0
 16 38  1  0
 17 39  1  0
 17 40  1  0
 18 41  1  0
 18 42  1  0
 19 43  1  0
 22 44  1  0
 23 45  1  0
 24 46  1  0
 25 47  1  0
 25 48  1  0
M  END
>  <Energy>  (457) 
1056.9474939971817

>  <compound_id>  (457) 
47212

>  <target_id>  (457) 
1

>  <reference_id>  (457) 
35

>  <inspiration_ids>  (457) 
[97, 35]

>  <energy_score>  (457) 
1070.8084754428419

>  <distance_score>  (457) 
12.065758388386257

>  <path>  (457) 
/opt/xchem-fragalysis-2/maxwin/BulkDock/SCRATCH/511015/C47212-P35/C47212-P35.minimised.mol

>  <scratch_subdir>  (457) 
/opt/xchem-fragalysis-2/maxwin/BulkDock/SCRATCH/511015/C47212-P35

>  <fragmenstein_runtime>  (457) 
31.389838695526123

>  <fragmenstein_outcome>  (457) 
too moved

>  <fragmenstein_mode>  (457) 
expansion

>  <fragmenstein_error>  (457) 


$$$$
C69417-P97
     RDKit          3D

 37 40  0  0  0  0  0  0  0  0999 V2000
   -1.0942   -6.1433   28.3640 O   0  0  0  0  0  0  0  0  0  0  0  0
   -0.6407   -6.8041   27.4649 C   0  0  0  0  0  0  0  0  0  0  0  0
   -0.2849   -8.2716   27.4096 N   0  0  0  0  0  0  0  0  0  0  0  0
   -0.5031   -9.4937   28.5364 C   0  0  0  0  0  0  0  0  0  0  0  0
    0.4799  -10.5337   29.2866 C   0  0  0  0  0  0  0  0  0  0  0  0
   -0.8396  -11.3888   29.5362 C   0  0  0  0  0  0  0  0  0  0  0  0
   -0.9410  -12.9438   29.8782 C   0  0  0  0  0  0  0  0  0  0  0  0
   -1.1661  -13.3905   31.1045 N   0  0  0  0  0  0  0  0  0  0  0  0
   -1.5215  -14.7161   30.9852 C   0  0  0  0  0  0  0  0  0  0  0  0
   -1.4995  -15.0970   29.6692 C   0  0  0  0  0  0  0  0  0  0  0  0
   -1.1134  -13.9716   28.9808 N   0  0  0  0  0  0  0  0  0  0  0  0
   -1.1095  -10.9636   28.0749 C   0  0  0  0  0  0  0  0  0  0  0  0
   -0.3910   -5.9370   26.1052 C   0  0  0  0  0  0  0  0  0  0  0  0
   -0.6629   -6.4243   24.8146 C   0  0  0  0  0  0  0  0  0  0  0  0
   -0.1150   -5.8414   23.6202 C   0  0  0  0  0  0  0  0  0  0  0  0
    0.7744   -4.7455   23.6940 C   0  0  0  0  0  0  0  0  0  0  0  0
    1.6075   -4.0536   22.7571 C   0  0  0  0  0  0  0  0  0  0  0  0
    2.2861   -3.0763   23.4481 C   0  0  0  0  0  0  0  0  0  0  0  0
    1.8717   -3.1368   24.7590 N   0  0  0  0  0  0  0  0  0  0  0  0
    0.9693   -4.1722   24.9525 C   0  0  0  0  0  0  0  0  0  0  0  0
    0.3457   -4.7022   26.1444 C   0  0  0  0  0  0  0  0  0  0  0  0
   -0.0069   -8.5079   26.4725 H   0  0  0  0  0  0  0  0  0  0  0  0
   -0.9945   -8.9518   29.3487 H   0  0  0  0  0  0  0  0  0  0  0  0
    1.2528  -10.9984   28.6645 H   0  0  0  0  0  0  0  0  0  0  0  0
    0.9342  -10.2078   30.2256 H   0  0  0  0  0  0  0  0  0  0  0  0
   -1.5066  -10.8897   30.2568 H   0  0  0  0  0  0  0  0  0  0  0  0
   -1.7796  -15.3091   31.8527 H   0  0  0  0  0  0  0  0  0  0  0  0
   -1.7320  -16.0259   29.1699 H   0  0  0  0  0  0  0  0  0  0  0  0
   -1.0716  -13.8739   27.9764 H   0  0  0  0  0  0  0  0  0  0  0  0
   -2.1333  -11.1558   27.7825 H   0  0  0  0  0  0  0  0  0  0  0  0
   -0.4937  -11.5038   27.3408 H   0  0  0  0  0  0  0  0  0  0  0  0
   -1.1957   -7.3569   24.7033 H   0  0  0  0  0  0  0  0  0  0  0  0
   -0.2945   -6.3332   22.6661 H   0  0  0  0  0  0  0  0  0  0  0  0
    1.6990   -4.2715   21.7012 H   0  0  0  0  0  0  0  0  0  0  0  0
    3.0103   -2.3406   23.1271 H   0  0  0  0  0  0  0  0  0  0  0  0
    2.2002   -2.5311   25.4970 H   0  0  0  0  0  0  0  0  0  0  0  0
    0.5608   -4.2472   27.1082 H   0  0  0  0  0  0  0  0  0  0  0  0
  1  2  2  0
  2  3  1  0
  3  4  1  0
  4  5  1  0
  5  6  1  0
  6  7  1  0
  7  8  2  0
  8  9  1  0
  9 10  2  0
 10 11  1  0
  6 12  1  0
  2 13  1  0
 13 14  2  0
 14 15  1  0
 15 16  2  0
 16 17  1  0
 17 18  2  0
 18 19  1  0
 19 20  1  0
 20 21  2  0
 12  4  1  0
 21 13  1  0
 11  7  1  0
 20 16  1  0
  3 22  1  0
  4 23  1  0
  5 24  1  0
  5 25  1  0
  6 26  1  0
  9 27  1  0
 10 28  1  0
 11 29  1  0
 12 30  1  0
 12 31  1  0
 14 32  1  0
 15 33  1  0
 17 34  1  0
 18 35  1  0
 19 36  1  0
 21 37  1  0
M  END
>  <Energy>  (458) 
96.237870463716263

>  <compound_id>  (458) 
69417

>  <target_id>  (458) 
1

>  <reference_id>  (458) 
97

>  <inspiration_ids>  (458) 
[97, 35]

>  <energy_score>  (458) 
48.97596437815929

>  <distance_score>  (458) 
15.240353812965537

>  <path>  (458) 
/opt/xchem-fragalysis-2/maxwin/BulkDock/SCRATCH/511015/C69417-P97/C69417-P97.minimised.mol

>  <scratch_subdir>  (458) 
/opt/xchem-fragalysis-2/maxwin/BulkDock/SCRATCH/511015/C69417-P97

>  <fragmenstein_runtime>  (458) 
10.108675241470337

>  <fragmenstein_outcome>  (458) 
too moved

>  <fragmenstein_mode>  (458) 
expansion

>  <fragmenstein_error>  (458) 


$$$$
C69417-P35
     RDKit          3D

 37 40  0  0  0  0  0  0  0  0999 V2000
   -5.0857   -7.8848   21.3715 O   0  0  0  0  0  0  0  0  0  0  0  0
   -4.5578   -8.8713   20.9247 C   0  0  0  0  0  0  0  0  0  0  0  0
   -4.7540  -10.3037   21.2541 N   0  0  0  0  0  0  0  0  0  0  0  0
   -5.7570  -11.0975   22.5335 C   0  0  0  0  0  0  0  0  0  0  0  0
   -5.5554  -12.4299   24.0229 C   0  0  0  0  0  0  0  0  0  0  0  0
   -3.6648  -12.4277   24.7629 C   0  0  0  0  0  0  0  0  0  0  0  0
   -2.3948  -14.0893   25.5441 C   0  0  0  0  0  0  0  0  0  0  0  0
   -2.6527  -15.4400   24.9065 N   0  0  0  0  0  0  0  0  0  0  0  0
   -2.7954  -16.7878   25.8105 C   0  0  0  0  0  0  0  0  0  0  0  0
   -2.3332  -16.5195   27.1179 C   0  0  0  0  0  0  0  0  0  0  0  0
   -2.1667  -14.8941   27.0621 N   0  0  0  0  0  0  0  0  0  0  0  0
   -4.0223  -10.7567   23.7043 C   0  0  0  0  0  0  0  0  0  0  0  0
   -3.3974   -8.5006   19.9099 C   0  0  0  0  0  0  0  0  0  0  0  0
   -3.6048   -7.7231   18.7635 C   0  0  0  0  0  0  0  0  0  0  0  0
   -2.5449   -7.0417   18.0699 C   0  0  0  0  0  0  0  0  0  0  0  0
   -1.2169   -7.0626   18.5508 C   0  0  0  0  0  0  0  0  0  0  0  0
    0.0268   -6.4709   18.1518 C   0  0  0  0  0  0  0  0  0  0  0  0
    0.9841   -6.8642   19.0595 C   0  0  0  0  0  0  0  0  0  0  0  0
    0.3628   -7.6699   19.9899 N   0  0  0  0  0  0  0  0  0  0  0  0
   -0.9914   -7.8002   19.7085 C   0  0  0  0  0  0  0  0  0  0  0  0
   -2.0450   -8.5195   20.3842 C   0  0  0  0  0  0  0  0  0  0  0  0
   -4.0812  -10.8576   20.7416 H   0  0  0  0  0  0  0  0  0  0  0  0
   -6.7699  -10.6733   22.3972 H   0  0  0  0  0  0  0  0  0  0  0  0
   -6.3326  -12.2132   24.7781 H   0  0  0  0  0  0  0  0  0  0  0  0
   -5.9025  -13.3738   23.5662 H   0  0  0  0  0  0  0  0  0  0  0  0
   -3.4177  -12.0737   25.7721 H   0  0  0  0  0  0  0  0  0  0  0  0
   -3.2061  -17.6797   25.3640 H   0  0  0  0  0  0  0  0  0  0  0  0
   -2.2515  -16.9668   28.0968 H   0  0  0  0  0  0  0  0  0  0  0  0
   -2.1832  -14.4486   27.9625 H   0  0  0  0  0  0  0  0  0  0  0  0
   -3.5167  -10.2965   22.7559 H   0  0  0  0  0  0  0  0  0  0  0  0
   -3.4956   -9.7829   23.9382 H   0  0  0  0  0  0  0  0  0  0  0  0
   -4.6255   -7.5766   18.4139 H   0  0  0  0  0  0  0  0  0  0  0  0
   -2.7885   -6.4538   17.1889 H   0  0  0  0  0  0  0  0  0  0  0  0
    0.1874   -5.8337   17.2936 H   0  0  0  0  0  0  0  0  0  0  0  0
    2.0433   -6.6649   19.1290 H   0  0  0  0  0  0  0  0  0  0  0  0
    0.8232   -8.1821   20.7335 H   0  0  0  0  0  0  0  0  0  0  0  0
   -1.8151   -9.0167   21.3244 H   0  0  0  0  0  0  0  0  0  0  0  0
  1  2  2  0
  2  3  1  0
  3  4  1  0
  4  5  1  0
  5  6  1  0
  6  7  1  0
  7  8  2  0
  8  9  1  0
  9 10  2  0
 10 11  1  0
  6 12  1  0
  2 13  1  0
 13 14  2  0
 14 15  1  0
 15 16  2  0
 16 17  1  0
 17 18  2  0
 18 19  1  0
 19 20  1  0
 20 21  2  0
 12  4  1  0
 21 13  1  0
 11  7  1  0
 20 16  1  0
  3 22  1  0
  4 23  1  0
  5 24  1  0
  5 25  1  0
  6 26  1  0
  9 27  1  0
 10 28  1  0
 11 29  1  0
 12 30  1  0
 12 31  1  0
 14 32  1  0
 15 33  1  0
 17 34  1  0
 18 35  1  0
 19 36  1  0
 21 37  1  0
M  END
>  <Energy>  (459) 
662.3760447656939

>  <compound_id>  (459) 
69417

>  <target_id>  (459) 
1

>  <reference_id>  (459) 
35

>  <inspiration_ids>  (459) 
[97, 35]

>  <energy_score>  (459) 
615.1141386801327

>  <distance_score>  (459) 
15.367412324474023

>  <path>  (459) 
/opt/xchem-fragalysis-2/maxwin/BulkDock/SCRATCH/511015/C69417-P35/C69417-P35.minimised.mol

>  <scratch_subdir>  (459) 
/opt/xchem-fragalysis-2/maxwin/BulkDock/SCRATCH/511015/C69417-P35

>  <fragmenstein_runtime>  (459) 
19.79714322090149

>  <fragmenstein_outcome>  (459) 
too moved

>  <fragmenstein_mode>  (459) 
expansion

>  <fragmenstein_error>  (459) 


$$$$
C69418-P97
     RDKit          3D

 37 40  0  0  0  0  0  0  0  0999 V2000
    3.6812  -14.0825   24.3053 O   0  0  0  0  0  0  0  0  0  0  0  0
    2.9930  -13.1096   24.1462 C   0  0  0  0  0  0  0  0  0  0  0  0
    1.7058  -12.6613   25.1234 N   0  0  0  0  0  0  0  0  0  0  0  0
    1.1029  -13.3381   26.6439 C   0  0  0  0  0  0  0  0  0  0  0  0
    2.0890  -13.8449   27.5919 C   0  0  0  0  0  0  0  0  0  0  0  0
    1.9602  -14.1640   28.9495 C   0  0  0  0  0  0  0  0  0  0  0  0
    0.7209  -14.1386   29.5114 C   0  0  0  0  0  0  0  0  0  0  0  0
   -0.3843  -13.7955   28.7265 C   0  0  0  0  0  0  0  0  0  0  0  0
   -1.6113  -14.3964   29.3561 C   0  0  0  0  0  0  0  0  0  0  0  0
   -2.2097  -14.0025   30.4744 N   0  0  0  0  0  0  0  0  0  0  0  0
   -2.9538  -15.0686   30.9448 C   0  0  0  0  0  0  0  0  0  0  0  0
   -2.8015  -16.1606   30.1310 C   0  0  0  0  0  0  0  0  0  0  0  0
   -1.9907  -15.7190   29.1170 N   0  0  0  0  0  0  0  0  0  0  0  0
   -0.1692  -13.1933   27.3724 C   0  0  0  0  0  0  0  0  0  0  0  0
    3.7005  -12.0171   22.6915 C   0  0  0  0  0  0  0  0  0  0  0  0
    4.1775  -12.7261   21.2675 C   0  0  0  0  0  0  0  0  0  0  0  0
    5.4980  -12.5795   20.4381 C   0  0  0  0  0  0  0  0  0  0  0  0
    6.4604  -11.5329   20.6966 C   0  0  0  0  0  0  0  0  0  0  0  0
    7.6369  -11.0625   20.0266 C   0  0  0  0  0  0  0  0  0  0  0  0
    8.0891   -9.9418   20.6866 C   0  0  0  0  0  0  0  0  0  0  0  0
    7.2554   -9.7248   21.7541 N   0  0  0  0  0  0  0  0  0  0  0  0
    6.2156  -10.6505   21.7667 C   0  0  0  0  0  0  0  0  0  0  0  0
    4.9759  -10.7393   22.6954 C   0  0  0  0  0  0  0  0  0  0  0  0
    1.2569  -11.8662   24.7230 H   0  0  0  0  0  0  0  0  0  0  0  0
    3.1211  -14.0106   27.2564 H   0  0  0  0  0  0  0  0  0  0  0  0
    2.8237  -14.4991   29.5164 H   0  0  0  0  0  0  0  0  0  0  0  0
    0.5920  -14.5001   30.5310 H   0  0  0  0  0  0  0  0  0  0  0  0
   -3.5442  -14.9824   31.8476 H   0  0  0  0  0  0  0  0  0  0  0  0
   -3.2015  -17.1632   30.1622 H   0  0  0  0  0  0  0  0  0  0  0  0
   -1.6420  -16.2874   28.3635 H   0  0  0  0  0  0  0  0  0  0  0  0
   -1.0428  -12.8174   26.8444 H   0  0  0  0  0  0  0  0  0  0  0  0
    3.4248  -13.4336   20.9948 H   0  0  0  0  0  0  0  0  0  0  0  0
    5.6142  -13.2243   19.5682 H   0  0  0  0  0  0  0  0  0  0  0  0
    8.0810  -11.4959   19.1392 H   0  0  0  0  0  0  0  0  0  0  0  0
    8.9342   -9.2936   20.5012 H   0  0  0  0  0  0  0  0  0  0  0  0
    7.3398   -8.9582   22.4065 H   0  0  0  0  0  0  0  0  0  0  0  0
    5.1306   -9.9992   23.4736 H   0  0  0  0  0  0  0  0  0  0  0  0
  1  2  2  0
  2  3  1  0
  3  4  1  0
  4  5  2  0
  5  6  1  0
  6  7  2  0
  7  8  1  0
  8  9  1  0
  9 10  2  0
 10 11  1  0
 11 12  2  0
 12 13  1  0
  8 14  2  0
  2 15  1  0
 15 16  2  0
 16 17  1  0
 17 18  2  0
 18 19  1  0
 19 20  2  0
 20 21  1  0
 21 22  1  0
 22 23  2  0
 14  4  1  0
 23 15  1  0
 13  9  1  0
 22 18  1  0
  3 24  1  0
  5 25  1  0
  6 26  1  0
  7 27  1  0
 11 28  1  0
 12 29  1  0
 13 30  1  0
 14 31  1  0
 16 32  1  0
 17 33  1  0
 19 34  1  0
 20 35  1  0
 21 36  1  0
 23 37  1  0
M  END
>  <Energy>  (460) 
334.70000722028169

>  <compound_id>  (460) 
69418

>  <target_id>  (460) 
1

>  <reference_id>  (460) 
97

>  <inspiration_ids>  (460) 
[97, 35]

>  <energy_score>  (460) 
264.31120136292634

>  <distance_score>  (460) 
13.61800581536853

>  <path>  (460) 
/opt/xchem-fragalysis-2/maxwin/BulkDock/SCRATCH/511015/C69418-P97/C69418-P97.minimised.mol

>  <scratch_subdir>  (460) 
/opt/xchem-fragalysis-2/maxwin/BulkDock/SCRATCH/511015/C69418-P97

>  <fragmenstein_runtime>  (460) 
8.06151294708252

>  <fragmenstein_outcome>  (460) 
too moved

>  <fragmenstein_mode>  (460) 
expansion

>  <fragmenstein_error>  (460) 


$$$$
C69418-P35
     RDKit          3D

 37 40  0  0  0  0  0  0  0  0999 V2000
    1.5710  -15.5583   20.5273 O   0  0  0  0  0  0  0  0  0  0  0  0
    0.5370  -16.1883   20.4258 C   0  0  0  0  0  0  0  0  0  0  0  0
   -0.7712  -16.1806   21.3346 N   0  0  0  0  0  0  0  0  0  0  0  0
   -1.3323  -15.0341   22.9308 C   0  0  0  0  0  0  0  0  0  0  0  0
   -3.1310  -15.3028   23.3350 C   0  0  0  0  0  0  0  0  0  0  0  0
   -4.3892  -16.2169   23.6811 C   0  0  0  0  0  0  0  0  0  0  0  0
   -4.2213  -17.0227   24.7290 C   0  0  0  0  0  0  0  0  0  0  0  0
   -2.9792  -16.7188   25.2593 C   0  0  0  0  0  0  0  0  0  0  0  0
   -2.6574  -17.6288   26.4482 C   0  0  0  0  0  0  0  0  0  0  0  0
   -2.2080  -17.3202   27.6520 N   0  0  0  0  0  0  0  0  0  0  0  0
   -2.2045  -18.4818   28.3882 C   0  0  0  0  0  0  0  0  0  0  0  0
   -2.6295  -19.5396   27.6271 C   0  0  0  0  0  0  0  0  0  0  0  0
   -2.9605  -18.9857   26.4248 N   0  0  0  0  0  0  0  0  0  0  0  0
   -1.9002  -15.5263   24.4539 C   0  0  0  0  0  0  0  0  0  0  0  0
    0.5434  -17.0540   19.0275 C   0  0  0  0  0  0  0  0  0  0  0  0
    1.7216  -17.6918   18.6095 C   0  0  0  0  0  0  0  0  0  0  0  0
    2.7303  -17.0753   17.7704 C   0  0  0  0  0  0  0  0  0  0  0  0
    2.4936  -15.8228   17.1760 C   0  0  0  0  0  0  0  0  0  0  0  0
    3.2694  -14.8433   16.4782 C   0  0  0  0  0  0  0  0  0  0  0  0
    2.4149  -13.8292   16.1058 C   0  0  0  0  0  0  0  0  0  0  0  0
    1.1488  -14.1897   16.5124 N   0  0  0  0  0  0  0  0  0  0  0  0
    1.1764  -15.3788   17.2282 C   0  0  0  0  0  0  0  0  0  0  0  0
    0.1650  -16.0827   18.0095 C   0  0  0  0  0  0  0  0  0  0  0  0
   -1.4795  -16.7684   20.9148 H   0  0  0  0  0  0  0  0  0  0  0  0
   -3.7272  -14.4525   23.5850 H   0  0  0  0  0  0  0  0  0  0  0  0
   -5.3860  -15.9200   23.3603 H   0  0  0  0  0  0  0  0  0  0  0  0
   -4.9870  -17.6353   25.1767 H   0  0  0  0  0  0  0  0  0  0  0  0
   -1.8758  -18.4867   29.4195 H   0  0  0  0  0  0  0  0  0  0  0  0
   -2.7381  -20.5946   27.8307 H   0  0  0  0  0  0  0  0  0  0  0  0
   -3.3506  -19.4753   25.6328 H   0  0  0  0  0  0  0  0  0  0  0  0
   -1.8709  -14.6630   25.1873 H   0  0  0  0  0  0  0  0  0  0  0  0
    1.9879  -18.6317   19.0979 H   0  0  0  0  0  0  0  0  0  0  0  0
    3.7020  -17.5518   17.6733 H   0  0  0  0  0  0  0  0  0  0  0  0
    4.3336  -14.8841   16.2887 H   0  0  0  0  0  0  0  0  0  0  0  0
    2.5863  -12.9059   15.5694 H   0  0  0  0  0  0  0  0  0  0  0  0
    0.3145  -13.6404   16.3621 H   0  0  0  0  0  0  0  0  0  0  0  0
   -0.8059  -15.5951   18.1089 H   0  0  0  0  0  0  0  0  0  0  0  0
  1  2  2  0
  2  3  1  0
  3  4  1  0
  4  5  2  0
  5  6  1  0
  6  7  2  0
  7  8  1  0
  8  9  1  0
  9 10  2  0
 10 11  1  0
 11 12  2  0
 12 13  1  0
  8 14  2  0
  2 15  1  0
 15 16  2  0
 16 17  1  0
 17 18  2  0
 18 19  1  0
 19 20  2  0
 20 21  1  0
 21 22  1  0
 22 23  2  0
 14  4  1  0
 23 15  1  0
 13  9  1  0
 22 18  1  0
  3 24  1  0
  5 25  1  0
  6 26  1  0
  7 27  1  0
 11 28  1  0
 12 29  1  0
 13 30  1  0
 14 31  1  0
 16 32  1  0
 17 33  1  0
 19 34  1  0
 20 35  1  0
 21 36  1  0
 23 37  1  0
M  END
>  <Energy>  (461) 
622.95948374199827

>  <compound_id>  (461) 
69418

>  <target_id>  (461) 
1

>  <reference_id>  (461) 
35

>  <inspiration_ids>  (461) 
[97, 35]

>  <energy_score>  (461) 
552.5706778846392

>  <distance_score>  (461) 
15.74608573335654

>  <path>  (461) 
/opt/xchem-fragalysis-2/maxwin/BulkDock/SCRATCH/511015/C69418-P35/C69418-P35.minimised.mol

>  <scratch_subdir>  (461) 
/opt/xchem-fragalysis-2/maxwin/BulkDock/SCRATCH/511015/C69418-P35

>  <fragmenstein_runtime>  (461) 
23.89136528968811

>  <fragmenstein_outcome>  (461) 
too moved

>  <fragmenstein_mode>  (461) 
expansion

>  <fragmenstein_error>  (461) 


$$$$
C69430-P97
     RDKit          3D

 38 40  0  0  0  0  0  0  0  0999 V2000
   -0.1737   -8.1567   18.9344 O   0  0  0  0  0  0  0  0  0  0  0  0
   -0.7578   -8.5417   17.9558 C   0  0  0  0  0  0  0  0  0  0  0  0
    0.0210   -7.9991   16.2458 C   0  0  0  0  0  0  0  0  0  0  0  0
   -0.3985   -6.9690   14.6343 N   0  0  0  0  0  0  0  0  0  0  0  0
   -1.1263   -7.4397   13.4183 C   0  0  0  0  0  0  0  0  0  0  0  0
   -1.5855   -8.5773   13.2592 O   0  0  0  0  0  0  0  0  0  0  0  0
   -1.2812   -6.4839   12.2429 C   0  0  0  0  0  0  0  0  0  0  0  0
   -1.9036   -4.8886   12.7698 S   0  0  0  0  0  0  0  0  0  0  0  0
   -0.3878   -4.4500   13.5296 C   0  0  0  0  0  0  0  0  0  0  0  0
    0.1680   -3.1801   13.2190 C   0  0  0  0  0  0  0  0  0  0  0  0
    1.4533   -2.8126   13.6084 C   0  0  0  0  0  0  0  0  0  0  0  0
    2.2021   -3.7289   14.2993 C   0  0  0  0  0  0  0  0  0  0  0  0
    1.6183   -4.9688   14.6219 C   0  0  0  0  0  0  0  0  0  0  0  0
    0.2842   -5.3959   14.3022 C   0  0  0  0  0  0  0  0  0  0  0  0
   -2.0090   -9.5139   17.8279 N   0  0  0  0  0  0  0  0  0  0  0  0
   -2.7706  -10.3237   18.9040 C   0  0  0  0  0  0  0  0  0  0  0  0
   -3.1556  -11.8149   18.3943 C   0  0  0  0  0  0  0  0  0  0  0  0
   -4.0324  -12.8261   18.9797 N   0  0  0  0  0  0  0  0  0  0  0  0
   -3.8795  -14.1905   18.7356 C   0  0  0  0  0  0  0  0  0  0  0  0
   -5.0577  -14.7938   19.1121 C   0  0  0  0  0  0  0  0  0  0  0  0
   -5.9014  -13.8548   19.6553 N   0  0  0  0  0  0  0  0  0  0  0  0
   -5.3036  -12.6844   19.4772 C   0  0  0  0  0  0  0  0  0  0  0  0
    1.0957   -7.9249   16.4247 H   0  0  0  0  0  0  0  0  0  0  0  0
   -0.1967   -8.9501   15.9187 H   0  0  0  0  0  0  0  0  0  0  0  0
   -2.0288   -6.9084   11.5634 H   0  0  0  0  0  0  0  0  0  0  0  0
   -0.3477   -6.4101   11.6757 H   0  0  0  0  0  0  0  0  0  0  0  0
   -0.4101   -2.4760   12.6199 H   0  0  0  0  0  0  0  0  0  0  0  0
    1.8575   -1.8412   13.3394 H   0  0  0  0  0  0  0  0  0  0  0  0
    3.2258   -3.5078   14.5889 H   0  0  0  0  0  0  0  0  0  0  0  0
    2.3105   -5.6355   15.1012 H   0  0  0  0  0  0  0  0  0  0  0  0
   -2.2987   -9.5641   16.8713 H   0  0  0  0  0  0  0  0  0  0  0  0
   -3.6915   -9.7666   19.1005 H   0  0  0  0  0  0  0  0  0  0  0  0
   -2.1773  -10.3575   19.8201 H   0  0  0  0  0  0  0  0  0  0  0  0
   -2.1972  -12.3194   18.2280 H   0  0  0  0  0  0  0  0  0  0  0  0
   -3.6001  -11.6659   17.4011 H   0  0  0  0  0  0  0  0  0  0  0  0
   -2.9863  -14.5855   18.2696 H   0  0  0  0  0  0  0  0  0  0  0  0
   -5.3300  -15.8398   19.0499 H   0  0  0  0  0  0  0  0  0  0  0  0
   -5.7335  -11.7194   19.7154 H   0  0  0  0  0  0  0  0  0  0  0  0
  1  2  2  0
  2  3  1  0
  3  4  1  0
  4  5  1  0
  5  6  2  0
  5  7  1  0
  7  8  1  0
  8  9  1  0
  9 10  2  0
 10 11  1  0
 11 12  2  0
 12 13  1  0
 13 14  2  0
  2 15  1  0
 15 16  1  0
 16 17  1  0
 17 18  1  0
 18 19  1  0
 19 20  2  0
 20 21  1  0
 21 22  2  0
 14  4  1  0
 22 18  1  0
 14  9  1  0
  3 23  1  0
  3 24  1  0
  7 25  1  0
  7 26  1  0
 10 27  1  0
 11 28  1  0
 12 29  1  0
 13 30  1  0
 15 31  1  0
 16 32  1  0
 16 33  1  0
 17 34  1  0
 17 35  1  0
 19 36  1  0
 20 37  1  0
 22 38  1  0
M  END
>  <Energy>  (462) 
262.88624448486894

>  <compound_id>  (462) 
69430

>  <target_id>  (462) 
1

>  <reference_id>  (462) 
97

>  <inspiration_ids>  (462) 
[97, 35]

>  <energy_score>  (462) 
181.8488112903117

>  <distance_score>  (462) 
16.317112522949433

>  <path>  (462) 
/opt/xchem-fragalysis-2/maxwin/BulkDock/SCRATCH/511015/C69430-P97/C69430-P97.minimised.mol

>  <scratch_subdir>  (462) 
/opt/xchem-fragalysis-2/maxwin/BulkDock/SCRATCH/511015/C69430-P97

>  <fragmenstein_runtime>  (462) 
11.311975955963135

>  <fragmenstein_outcome>  (462) 
too moved

>  <fragmenstein_mode>  (462) 
expansion

>  <fragmenstein_error>  (462) 


$$$$
C69430-P35
     RDKit          3D

 38 40  0  0  0  0  0  0  0  0999 V2000
    5.2477  -16.0938   18.8231 O   0  0  0  0  0  0  0  0  0  0  0  0
    4.6116  -15.1408   18.5094 C   0  0  0  0  0  0  0  0  0  0  0  0
    5.3616  -13.4475   19.4991 C   0  0  0  0  0  0  0  0  0  0  0  0
    6.8578  -12.4195   20.2557 N   0  0  0  0  0  0  0  0  0  0  0  0
    7.0366  -11.1628   19.5383 C   0  0  0  0  0  0  0  0  0  0  0  0
    6.0310  -10.7922   18.9782 O   0  0  0  0  0  0  0  0  0  0  0  0
    8.5184  -10.4710   18.9058 C   0  0  0  0  0  0  0  0  0  0  0  0
   10.1314  -11.1945   18.8296 S   0  0  0  0  0  0  0  0  0  0  0  0
    9.8922  -12.2250   20.2003 C   0  0  0  0  0  0  0  0  0  0  0  0
   11.1830  -12.2798   20.8584 C   0  0  0  0  0  0  0  0  0  0  0  0
   11.2892  -12.8682   22.0852 C   0  0  0  0  0  0  0  0  0  0  0  0
   10.1836  -13.5712   22.4688 C   0  0  0  0  0  0  0  0  0  0  0  0
    9.1431  -13.7765   21.5084 C   0  0  0  0  0  0  0  0  0  0  0  0
    8.6357  -12.8245   20.6887 C   0  0  0  0  0  0  0  0  0  0  0  0
    3.2348  -15.3775   17.4384 N   0  0  0  0  0  0  0  0  0  0  0  0
    2.5923  -16.9132   16.5231 C   0  0  0  0  0  0  0  0  0  0  0  0
    1.9061  -18.6061   17.0330 C   0  0  0  0  0  0  0  0  0  0  0  0
    0.9556  -19.1731   18.0290 N   0  0  0  0  0  0  0  0  0  0  0  0
    1.2557  -20.1762   18.9547 C   0  0  0  0  0  0  0  0  0  0  0  0
    0.0817  -20.5262   19.5835 C   0  0  0  0  0  0  0  0  0  0  0  0
   -0.9691  -19.9218   18.9664 N   0  0  0  0  0  0  0  0  0  0  0  0
   -0.4285  -19.2315   17.9790 C   0  0  0  0  0  0  0  0  0  0  0  0
    4.8833  -13.3639   20.4791 H   0  0  0  0  0  0  0  0  0  0  0  0
    4.7058  -12.6695   19.1156 H   0  0  0  0  0  0  0  0  0  0  0  0
    8.3490  -10.4206   17.8250 H   0  0  0  0  0  0  0  0  0  0  0  0
    8.7089   -9.4583   19.1382 H   0  0  0  0  0  0  0  0  0  0  0  0
   12.0601  -11.7750   20.4541 H   0  0  0  0  0  0  0  0  0  0  0  0
   12.1936  -12.8322   22.6787 H   0  0  0  0  0  0  0  0  0  0  0  0
   10.1943  -14.1760   23.3736 H   0  0  0  0  0  0  0  0  0  0  0  0
    9.6483  -14.4805   20.7715 H   0  0  0  0  0  0  0  0  0  0  0  0
    2.7552  -14.4861   17.3421 H   0  0  0  0  0  0  0  0  0  0  0  0
    1.9011  -16.7344   15.7109 H   0  0  0  0  0  0  0  0  0  0  0  0
    3.4260  -17.1971   15.8433 H   0  0  0  0  0  0  0  0  0  0  0  0
    2.7457  -19.3091   16.9870 H   0  0  0  0  0  0  0  0  0  0  0  0
    1.3849  -18.8509   16.0896 H   0  0  0  0  0  0  0  0  0  0  0  0
    2.2714  -20.5070   19.1159 H   0  0  0  0  0  0  0  0  0  0  0  0
   -0.0544  -21.2118   20.4088 H   0  0  0  0  0  0  0  0  0  0  0  0
   -0.9959  -18.7714   17.1839 H   0  0  0  0  0  0  0  0  0  0  0  0
  1  2  2  0
  2  3  1  0
  3  4  1  0
  4  5  1  0
  5  6  2  0
  5  7  1  0
  7  8  1  0
  8  9  1  0
  9 10  2  0
 10 11  1  0
 11 12  2  0
 12 13  1  0
 13 14  2  0
  2 15  1  0
 15 16  1  0
 16 17  1  0
 17 18  1  0
 18 19  1  0
 19 20  2  0
 20 21  1  0
 21 22  2  0
 14  4  1  0
 22 18  1  0
 14  9  1  0
  3 23  1  0
  3 24  1  0
  7 25  1  0
  7 26  1  0
 10 27  1  0
 11 28  1  0
 12 29  1  0
 13 30  1  0
 15 31  1  0
 16 32  1  0
 16 33  1  0
 17 34  1  0
 17 35  1  0
 19 36  1  0
 20 37  1  0
 22 38  1  0
M  END
>  <Energy>  (463) 
628.9004061743633

>  <compound_id>  (463) 
69430

>  <target_id>  (463) 
1

>  <reference_id>  (463) 
35

>  <inspiration_ids>  (463) 
[97, 35]

>  <energy_score>  (463) 
547.8629729798079

>  <distance_score>  (463) 
15.241052392006706

>  <path>  (463) 
/opt/xchem-fragalysis-2/maxwin/BulkDock/SCRATCH/511015/C69430-P35/C69430-P35.minimised.mol

>  <scratch_subdir>  (463) 
/opt/xchem-fragalysis-2/maxwin/BulkDock/SCRATCH/511015/C69430-P35

>  <fragmenstein_runtime>  (463) 
21.520004987716675

>  <fragmenstein_outcome>  (463) 
too moved

>  <fragmenstein_mode>  (463) 
expansion

>  <fragmenstein_error>  (463) 


$$$$
C69431-P97
     RDKit          3D

 48 51  0  0  0  0  0  0  0  0999 V2000
    5.9954  -15.4636   28.1769 C   0  0  0  0  0  0  0  0  0  0  0  0
    5.4080  -16.1227   26.9194 C   0  0  0  0  0  0  0  0  0  0  0  0
    5.4746  -15.0868   25.7914 N   0  0  0  0  0  0  0  0  0  0  0  0
    6.6540  -14.4451   25.1173 C   0  0  0  0  0  0  0  0  0  0  0  0
    7.8356  -14.6494   25.2459 O   0  0  0  0  0  0  0  0  0  0  0  0
    6.2722  -13.3165   23.9632 C   0  0  0  0  0  0  0  0  0  0  0  0
    7.2609  -12.1692   23.6087 N   0  0  0  0  0  0  0  0  0  0  0  0
    7.6203  -11.3298   24.6697 C   0  0  0  0  0  0  0  0  0  0  0  0
    7.1730  -11.5287   25.8078 O   0  0  0  0  0  0  0  0  0  0  0  0
    8.4273  -10.0599   24.4204 C   0  0  0  0  0  0  0  0  0  0  0  0
    9.7345  -10.2529   23.2152 S   0  0  0  0  0  0  0  0  0  0  0  0
    8.6717  -10.8887   21.9394 C   0  0  0  0  0  0  0  0  0  0  0  0
    8.9827  -10.4821   20.6270 C   0  0  0  0  0  0  0  0  0  0  0  0
    8.1822  -10.8789   19.5712 C   0  0  0  0  0  0  0  0  0  0  0  0
    7.0867  -11.6909   19.8333 C   0  0  0  0  0  0  0  0  0  0  0  0
    6.7950  -12.1322   21.1408 C   0  0  0  0  0  0  0  0  0  0  0  0
    7.5735  -11.7470   22.2343 C   0  0  0  0  0  0  0  0  0  0  0  0
    4.0908  -16.9507   27.2812 C   0  0  0  0  0  0  0  0  0  0  0  0
    3.2299  -16.6701   28.3752 C   0  0  0  0  0  0  0  0  0  0  0  0
    2.0668  -17.4471   28.6738 C   0  0  0  0  0  0  0  0  0  0  0  0
    1.7244  -18.5603   27.8972 C   0  0  0  0  0  0  0  0  0  0  0  0
    0.5253  -19.3144   28.1427 N   0  0  0  0  0  0  0  0  0  0  0  0
    0.0865  -20.4496   27.4809 C   0  0  0  0  0  0  0  0  0  0  0  0
   -1.1135  -20.8001   28.0504 C   0  0  0  0  0  0  0  0  0  0  0  0
   -1.4478  -19.9329   29.0465 N   0  0  0  0  0  0  0  0  0  0  0  0
   -0.4640  -19.0603   29.0789 C   0  0  0  0  0  0  0  0  0  0  0  0
    2.5902  -18.9014   26.8530 C   0  0  0  0  0  0  0  0  0  0  0  0
    3.7468  -18.1192   26.5641 C   0  0  0  0  0  0  0  0  0  0  0  0
    6.0692  -16.1746   29.0068 H   0  0  0  0  0  0  0  0  0  0  0  0
    5.3843  -14.6136   28.5007 H   0  0  0  0  0  0  0  0  0  0  0  0
    7.0026  -15.0785   27.9827 H   0  0  0  0  0  0  0  0  0  0  0  0
    6.1436  -16.8795   26.6139 H   0  0  0  0  0  0  0  0  0  0  0  0
    4.6270  -14.6113   25.5038 H   0  0  0  0  0  0  0  0  0  0  0  0
    5.3341  -12.8483   24.2553 H   0  0  0  0  0  0  0  0  0  0  0  0
    6.1058  -13.9106   23.0601 H   0  0  0  0  0  0  0  0  0  0  0  0
    8.8871   -9.7575   25.3669 H   0  0  0  0  0  0  0  0  0  0  0  0
    7.7358   -9.2675   24.1138 H   0  0  0  0  0  0  0  0  0  0  0  0
    9.8471   -9.8557   20.4283 H   0  0  0  0  0  0  0  0  0  0  0  0
    8.4048  -10.5778   18.5519 H   0  0  0  0  0  0  0  0  0  0  0  0
    6.4391  -11.9996   19.0124 H   0  0  0  0  0  0  0  0  0  0  0  0
    5.9147  -12.7569   21.2636 H   0  0  0  0  0  0  0  0  0  0  0  0
    3.4295  -15.8072   29.0095 H   0  0  0  0  0  0  0  0  0  0  0  0
    1.4623  -17.1244   29.5170 H   0  0  0  0  0  0  0  0  0  0  0  0
    0.6415  -20.9095   26.6785 H   0  0  0  0  0  0  0  0  0  0  0  0
   -1.7508  -21.6350   27.7888 H   0  0  0  0  0  0  0  0  0  0  0  0
   -0.4203  -18.2211   29.7581 H   0  0  0  0  0  0  0  0  0  0  0  0
    2.4074  -19.7590   26.2110 H   0  0  0  0  0  0  0  0  0  0  0  0
    4.3789  -18.4309   25.7313 H   0  0  0  0  0  0  0  0  0  0  0  0
  1  2  1  0
  2  3  1  0
  3  4  1  0
  4  5  2  0
  4  6  1  0
  6  7  1  0
  7  8  1  0
  8  9  2  0
  8 10  1  0
 10 11  1  0
 11 12  1  0
 12 13  2  0
 13 14  1  0
 14 15  2  0
 15 16  1  0
 16 17  2  0
  2 18  1  0
 18 19  2  0
 19 20  1  0
 20 21  2  0
 21 22  1  0
 22 23  1  0
 23 24  2  0
 24 25  1  0
 25 26  2  0
 21 27  1  0
 27 28  2  0
 17  7  1  0
 28 18  1  0
 17 12  1  0
 26 22  1  0
  1 29  1  0
  1 30  1  0
  1 31  1  0
  2 32  1  0
  3 33  1  0
  6 34  1  0
  6 35  1  0
 10 36  1  0
 10 37  1  0
 13 38  1  0
 14 39  1  0
 15 40  1  0
 16 41  1  0
 19 42  1  0
 20 43  1  0
 23 44  1  0
 24 45  1  0
 26 46  1  0
 27 47  1  0
 28 48  1  0
M  END
>  <Energy>  (464) 
129.22745607196063

>  <compound_id>  (464) 
69431

>  <target_id>  (464) 
1

>  <reference_id>  (464) 
97

>  <inspiration_ids>  (464) 
[97, 35]

>  <energy_score>  (464) 
2.8504364101345914

>  <distance_score>  (464) 
15.059187957381964

>  <path>  (464) 
/opt/xchem-fragalysis-2/maxwin/BulkDock/SCRATCH/511015/C69431-P97/C69431-P97.minimised.mol

>  <scratch_subdir>  (464) 
/opt/xchem-fragalysis-2/maxwin/BulkDock/SCRATCH/511015/C69431-P97

>  <fragmenstein_runtime>  (464) 
20.64363145828247

>  <fragmenstein_outcome>  (464) 
too moved

>  <fragmenstein_mode>  (464) 
expansion

>  <fragmenstein_error>  (464) 


$$$$
C69431-P35
     RDKit          3D

 48 51  0  0  0  0  0  0  0  0999 V2000
   -2.3873  -13.0842   25.4535 C   0  0  0  0  0  0  0  0  0  0  0  0
   -1.0445  -13.8908   24.5236 C   0  0  0  0  0  0  0  0  0  0  0  0
   -0.3565  -12.8175   22.8514 N   0  0  0  0  0  0  0  0  0  0  0  0
   -0.6429  -10.9051   22.2687 C   0  0  0  0  0  0  0  0  0  0  0  0
   -1.4045  -10.1317   22.8693 O   0  0  0  0  0  0  0  0  0  0  0  0
    0.1331  -10.0399   21.0987 C   0  0  0  0  0  0  0  0  0  0  0  0
   -0.4835   -8.7208   19.9586 N   0  0  0  0  0  0  0  0  0  0  0  0
   -1.7870   -9.0237   19.5005 C   0  0  0  0  0  0  0  0  0  0  0  0
   -2.5468   -9.7459   20.1597 O   0  0  0  0  0  0  0  0  0  0  0  0
   -2.1897   -8.6740   18.0670 C   0  0  0  0  0  0  0  0  0  0  0  0
   -1.8099   -7.0244   17.4601 S   0  0  0  0  0  0  0  0  0  0  0  0
   -0.0727   -7.1070   17.8112 C   0  0  0  0  0  0  0  0  0  0  0  0
    0.7314   -6.3575   16.8966 C   0  0  0  0  0  0  0  0  0  0  0  0
    2.0687   -6.6462   16.7109 C   0  0  0  0  0  0  0  0  0  0  0  0
    2.5464   -7.7372   17.3872 C   0  0  0  0  0  0  0  0  0  0  0  0
    1.7365   -8.3797   18.3692 C   0  0  0  0  0  0  0  0  0  0  0  0
    0.4394   -8.0353   18.7460 C   0  0  0  0  0  0  0  0  0  0  0  0
   -2.6290  -15.1793   24.7252 C   0  0  0  0  0  0  0  0  0  0  0  0
   -2.7003  -16.6430   25.0105 C   0  0  0  0  0  0  0  0  0  0  0  0
   -3.8296  -17.4863   25.2734 C   0  0  0  0  0  0  0  0  0  0  0  0
   -5.1016  -16.9779   25.2600 C   0  0  0  0  0  0  0  0  0  0  0  0
   -6.2350  -17.7985   25.4707 N   0  0  0  0  0  0  0  0  0  0  0  0
   -7.5503  -17.3972   25.5573 C   0  0  0  0  0  0  0  0  0  0  0  0
   -8.2878  -18.5442   25.6648 C   0  0  0  0  0  0  0  0  0  0  0  0
   -7.4772  -19.6389   25.6908 N   0  0  0  0  0  0  0  0  0  0  0  0
   -6.2596  -19.1714   25.5807 C   0  0  0  0  0  0  0  0  0  0  0  0
   -5.2149  -15.6391   24.9722 C   0  0  0  0  0  0  0  0  0  0  0  0
   -4.0619  -14.8247   24.6977 C   0  0  0  0  0  0  0  0  0  0  0  0
   -3.2781  -12.7151   24.9465 H   0  0  0  0  0  0  0  0  0  0  0  0
   -2.7560  -13.7212   26.2717 H   0  0  0  0  0  0  0  0  0  0  0  0
   -2.1545  -12.0862   25.7725 H   0  0  0  0  0  0  0  0  0  0  0  0
   -0.8473  -14.7871   23.9798 H   0  0  0  0  0  0  0  0  0  0  0  0
    0.1736  -13.2645   22.2283 H   0  0  0  0  0  0  0  0  0  0  0  0
    1.1825   -9.8460   21.1415 H   0  0  0  0  0  0  0  0  0  0  0  0
    0.0927   -9.1740   21.8070 H   0  0  0  0  0  0  0  0  0  0  0  0
   -3.2777   -8.7855   18.0004 H   0  0  0  0  0  0  0  0  0  0  0  0
   -1.7512   -9.4247   17.3992 H   0  0  0  0  0  0  0  0  0  0  0  0
    0.2659   -5.6077   16.2583 H   0  0  0  0  0  0  0  0  0  0  0  0
    2.6670   -6.1154   15.9800 H   0  0  0  0  0  0  0  0  0  0  0  0
    3.5458   -8.1174   17.1879 H   0  0  0  0  0  0  0  0  0  0  0  0
    2.1752   -9.2441   18.8090 H   0  0  0  0  0  0  0  0  0  0  0  0
   -1.8485  -17.3278   25.0182 H   0  0  0  0  0  0  0  0  0  0  0  0
   -3.6256  -18.5364   25.4684 H   0  0  0  0  0  0  0  0  0  0  0  0
   -7.8560  -16.3638   25.5227 H   0  0  0  0  0  0  0  0  0  0  0  0
   -9.3622  -18.6393   25.7158 H   0  0  0  0  0  0  0  0  0  0  0  0
   -5.3734  -19.7873   25.5647 H   0  0  0  0  0  0  0  0  0  0  0  0
   -6.1831  -15.1469   24.9056 H   0  0  0  0  0  0  0  0  0  0  0  0
   -4.4518  -13.8392   24.4607 H   0  0  0  0  0  0  0  0  0  0  0  0
  1  2  1  0
  2  3  1  0
  3  4  1  0
  4  5  2  0
  4  6  1  0
  6  7  1  0
  7  8  1  0
  8  9  2  0
  8 10  1  0
 10 11  1  0
 11 12  1  0
 12 13  2  0
 13 14  1  0
 14 15  2  0
 15 16  1  0
 16 17  2  0
  2 18  1  0
 18 19  2  0
 19 20  1  0
 20 21  2  0
 21 22  1  0
 22 23  1  0
 23 24  2  0
 24 25  1  0
 25 26  2  0
 21 27  1  0
 27 28  2  0
 17  7  1  0
 28 18  1  0
 17 12  1  0
 26 22  1  0
  1 29  1  0
  1 30  1  0
  1 31  1  0
  2 32  1  0
  3 33  1  0
  6 34  1  0
  6 35  1  0
 10 36  1  0
 10 37  1  0
 13 38  1  0
 14 39  1  0
 15 40  1  0
 16 41  1  0
 19 42  1  0
 20 43  1  0
 23 44  1  0
 24 45  1  0
 26 46  1  0
 27 47  1  0
 28 48  1  0
M  END
>  <Energy>  (465) 
715.21555948115849

>  <compound_id>  (465) 
69431

>  <target_id>  (465) 
1

>  <reference_id>  (465) 
35

>  <inspiration_ids>  (465) 
[97, 35]

>  <energy_score>  (465) 
588.8385398193274

>  <distance_score>  (465) 
14.550163527058647

>  <path>  (465) 
/opt/xchem-fragalysis-2/maxwin/BulkDock/SCRATCH/511015/C69431-P35/C69431-P35.minimised.mol

>  <scratch_subdir>  (465) 
/opt/xchem-fragalysis-2/maxwin/BulkDock/SCRATCH/511015/C69431-P35

>  <fragmenstein_runtime>  (465) 
30.878390073776245

>  <fragmenstein_outcome>  (465) 
too moved

>  <fragmenstein_mode>  (465) 
expansion

>  <fragmenstein_error>  (465) 


$$$$
C69434-P97
     RDKit          3D

 31 32  0  0  0  0  0  0  0  0999 V2000
    4.3082  -18.4649   26.7577 C   0  0  0  0  0  0  0  0  0  0  0  0
    3.9246  -17.5395   27.9233 C   0  0  0  0  0  0  0  0  0  0  0  0
    4.5420  -16.1669   27.7400 N   0  0  0  0  0  0  0  0  0  0  0  0
    5.5344  -15.6652   26.7342 C   0  0  0  0  0  0  0  0  0  0  0  0
    6.0206  -16.2094   25.7785 O   0  0  0  0  0  0  0  0  0  0  0  0
    6.0560  -14.2270   27.1086 C   0  0  0  0  0  0  0  0  0  0  0  0
    6.8755  -13.4010   26.1577 N   0  0  0  0  0  0  0  0  0  0  0  0
    7.7832  -13.7704   25.1938 C   0  0  0  0  0  0  0  0  0  0  0  0
    8.2888  -12.5989   24.6600 C   0  0  0  0  0  0  0  0  0  0  0  0
    7.7744  -11.5126   25.3109 N   0  0  0  0  0  0  0  0  0  0  0  0
    6.9766  -12.0211   26.2257 C   0  0  0  0  0  0  0  0  0  0  0  0
    2.4322  -17.7006   28.3903 C   0  0  0  0  0  0  0  0  0  0  0  0
    1.8142  -16.8686   29.3326 C   0  0  0  0  0  0  0  0  0  0  0  0
    0.5146  -17.1442   29.8131 C   0  0  0  0  0  0  0  0  0  0  0  0
   -0.1602  -18.2611   29.3515 C   0  0  0  0  0  0  0  0  0  0  0  0
    0.3776  -19.1069   28.4590 N   0  0  0  0  0  0  0  0  0  0  0  0
    1.6408  -18.8118   28.0214 C   0  0  0  0  0  0  0  0  0  0  0  0
    3.7857  -18.1876   25.8374 H   0  0  0  0  0  0  0  0  0  0  0  0
    5.3847  -18.4345   26.5633 H   0  0  0  0  0  0  0  0  0  0  0  0
    4.0865  -19.5138   26.9780 H   0  0  0  0  0  0  0  0  0  0  0  0
    4.4871  -17.9209   28.7879 H   0  0  0  0  0  0  0  0  0  0  0  0
    4.4164  -15.4684   28.4607 H   0  0  0  0  0  0  0  0  0  0  0  0
    6.7062  -14.3413   27.9849 H   0  0  0  0  0  0  0  0  0  0  0  0
    5.2037  -13.6095   27.3930 H   0  0  0  0  0  0  0  0  0  0  0  0
    7.9666  -14.8063   24.9438 H   0  0  0  0  0  0  0  0  0  0  0  0
    8.9990  -12.4929   23.8501 H   0  0  0  0  0  0  0  0  0  0  0  0
    6.4407  -11.4484   26.9692 H   0  0  0  0  0  0  0  0  0  0  0  0
    2.3375  -15.9986   29.7203 H   0  0  0  0  0  0  0  0  0  0  0  0
    0.0478  -16.4865   30.5395 H   0  0  0  0  0  0  0  0  0  0  0  0
   -1.1599  -18.5032   29.6949 H   0  0  0  0  0  0  0  0  0  0  0  0
    2.0048  -19.5576   27.3195 H   0  0  0  0  0  0  0  0  0  0  0  0
  1  2  1  0
  2  3  1  0
  3  4  1  0
  4  5  2  0
  4  6  1  0
  6  7  1  0
  7  8  1  0
  8  9  2  0
  9 10  1  0
 10 11  2  0
  2 12  1  0
 12 13  2  0
 13 14  1  0
 14 15  2  0
 15 16  1  0
 16 17  2  0
 11  7  1  0
 17 12  1  0
  1 18  1  0
  1 19  1  0
  1 20  1  0
  2 21  1  0
  3 22  1  0
  6 23  1  0
  6 24  1  0
  8 25  1  0
  9 26  1  0
 11 27  1  0
 13 28  1  0
 14 29  1  0
 15 30  1  0
 17 31  1  0
M  END
>  <Energy>  (466) 
45.167628419674415

>  <compound_id>  (466) 
69434

>  <target_id>  (466) 
1

>  <reference_id>  (466) 
97

>  <inspiration_ids>  (466) 
[97, 35]

>  <energy_score>  (466) 
13.142826513993953

>  <distance_score>  (466) 
15.932300288427673

>  <path>  (466) 
/opt/xchem-fragalysis-2/maxwin/BulkDock/SCRATCH/511015/C69434-P97/C69434-P97.minimised.mol

>  <scratch_subdir>  (466) 
/opt/xchem-fragalysis-2/maxwin/BulkDock/SCRATCH/511015/C69434-P97

>  <fragmenstein_runtime>  (466) 
9.721818208694458

>  <fragmenstein_outcome>  (466) 
too moved

>  <fragmenstein_mode>  (466) 
expansion

>  <fragmenstein_error>  (466) 


$$$$
C69434-P35
     RDKit          3D

 31 32  0  0  0  0  0  0  0  0999 V2000
   -3.9419  -16.2696   24.3684 C   0  0  0  0  0  0  0  0  0  0  0  0
   -2.5768  -15.8349   25.2862 C   0  0  0  0  0  0  0  0  0  0  0  0
   -1.5236  -14.2523   24.9052 N   0  0  0  0  0  0  0  0  0  0  0  0
   -0.5444  -13.7368   23.3489 C   0  0  0  0  0  0  0  0  0  0  0  0
   -0.4220  -14.4946   22.4495 O   0  0  0  0  0  0  0  0  0  0  0  0
    0.2268  -11.8349   22.7787 C   0  0  0  0  0  0  0  0  0  0  0  0
   -0.7355  -10.7136   21.7259 N   0  0  0  0  0  0  0  0  0  0  0  0
   -0.5075   -9.3557   21.5666 C   0  0  0  0  0  0  0  0  0  0  0  0
   -1.2673   -9.0421   20.4650 C   0  0  0  0  0  0  0  0  0  0  0  0
   -2.1669   -9.9969   20.1487 N   0  0  0  0  0  0  0  0  0  0  0  0
   -1.7476  -11.0279   20.8315 C   0  0  0  0  0  0  0  0  0  0  0  0
   -3.1010  -16.0515   26.9031 C   0  0  0  0  0  0  0  0  0  0  0  0
   -4.3221  -16.6871   27.1987 C   0  0  0  0  0  0  0  0  0  0  0  0
   -4.8192  -16.7112   28.5003 C   0  0  0  0  0  0  0  0  0  0  0  0
   -4.0290  -16.3276   29.5481 C   0  0  0  0  0  0  0  0  0  0  0  0
   -2.8070  -15.8308   29.3474 N   0  0  0  0  0  0  0  0  0  0  0  0
   -2.4077  -15.6662   28.0500 C   0  0  0  0  0  0  0  0  0  0  0  0
   -3.9465  -15.8865   23.3627 H   0  0  0  0  0  0  0  0  0  0  0  0
   -4.0587  -17.3603   24.4316 H   0  0  0  0  0  0  0  0  0  0  0  0
   -4.9406  -16.0899   24.7392 H   0  0  0  0  0  0  0  0  0  0  0  0
   -2.1637  -16.8299   25.1389 H   0  0  0  0  0  0  0  0  0  0  0  0
   -1.5950  -13.4657   25.5194 H   0  0  0  0  0  0  0  0  0  0  0  0
    1.2549  -11.6472   22.5267 H   0  0  0  0  0  0  0  0  0  0  0  0
    0.2628  -10.8957   23.2342 H   0  0  0  0  0  0  0  0  0  0  0  0
    0.2924   -8.8068   22.0276 H   0  0  0  0  0  0  0  0  0  0  0  0
   -1.0511   -8.2974   19.7311 H   0  0  0  0  0  0  0  0  0  0  0  0
   -2.1116  -12.0209   20.6358 H   0  0  0  0  0  0  0  0  0  0  0  0
   -4.9828  -17.1055   26.4498 H   0  0  0  0  0  0  0  0  0  0  0  0
   -5.8354  -17.0050   28.6742 H   0  0  0  0  0  0  0  0  0  0  0  0
   -4.3709  -16.3790   30.5754 H   0  0  0  0  0  0  0  0  0  0  0  0
   -1.4650  -15.1474   28.0135 H   0  0  0  0  0  0  0  0  0  0  0  0
  1  2  1  0
  2  3  1  0
  3  4  1  0
  4  5  2  0
  4  6  1  0
  6  7  1  0
  7  8  1  0
  8  9  2  0
  9 10  1  0
 10 11  2  0
  2 12  1  0
 12 13  2  0
 13 14  1  0
 14 15  2  0
 15 16  1  0
 16 17  2  0
 11  7  1  0
 17 12  1  0
  1 18  1  0
  1 19  1  0
  1 20  1  0
  2 21  1  0
  3 22  1  0
  6 23  1  0
  6 24  1  0
  8 25  1  0
  9 26  1  0
 11 27  1  0
 13 28  1  0
 14 29  1  0
 15 30  1  0
 17 31  1  0
M  END
>  <Energy>  (467) 
405.91186255963459

>  <compound_id>  (467) 
69434

>  <target_id>  (467) 
1

>  <reference_id>  (467) 
35

>  <inspiration_ids>  (467) 
[97, 35]

>  <energy_score>  (467) 
373.88706065396286

>  <distance_score>  (467) 
15.347358415869634

>  <path>  (467) 
/opt/xchem-fragalysis-2/maxwin/BulkDock/SCRATCH/511015/C69434-P35/C69434-P35.minimised.mol

>  <scratch_subdir>  (467) 
/opt/xchem-fragalysis-2/maxwin/BulkDock/SCRATCH/511015/C69434-P35

>  <fragmenstein_runtime>  (467) 
19.821732759475708

>  <fragmenstein_outcome>  (467) 
too moved

>  <fragmenstein_mode>  (467) 
expansion

>  <fragmenstein_error>  (467) 


$$$$
C69435-P97
     RDKit          3D

 34 35  0  0  0  0  0  0  0  0999 V2000
    2.8802   -6.1370   14.0947 C   0  0  0  0  0  0  0  0  0  0  0  0
    2.2736   -4.8400   14.5524 C   0  0  0  0  0  0  0  0  0  0  0  0
    3.1393   -3.7212   14.4891 C   0  0  0  0  0  0  0  0  0  0  0  0
    2.7158   -2.5073   14.9810 C   0  0  0  0  0  0  0  0  0  0  0  0
    1.4943   -2.3257   15.5084 N   0  0  0  0  0  0  0  0  0  0  0  0
    0.6483   -3.3948   15.5150 C   0  0  0  0  0  0  0  0  0  0  0  0
    0.9402   -4.6886   15.0602 C   0  0  0  0  0  0  0  0  0  0  0  0
   -0.2381   -5.7398   15.0589 C   0  0  0  0  0  0  0  0  0  0  0  0
   -0.1148   -6.5888   13.8044 C   0  0  0  0  0  0  0  0  0  0  0  0
   -0.6042   -6.5183   16.3360 N   0  0  0  0  0  0  0  0  0  0  0  0
   -1.5099   -7.7068   16.5410 C   0  0  0  0  0  0  0  0  0  0  0  0
   -2.1031   -8.3838   15.7415 O   0  0  0  0  0  0  0  0  0  0  0  0
   -1.7044   -8.0470   18.1008 C   0  0  0  0  0  0  0  0  0  0  0  0
   -2.4378   -9.2819   18.6156 N   0  0  0  0  0  0  0  0  0  0  0  0
   -2.5256   -9.6332   19.9655 C   0  0  0  0  0  0  0  0  0  0  0  0
   -3.1961  -10.8356   20.0259 C   0  0  0  0  0  0  0  0  0  0  0  0
   -3.5769  -11.2185   18.7723 N   0  0  0  0  0  0  0  0  0  0  0  0
   -3.1303  -10.2716   17.9614 C   0  0  0  0  0  0  0  0  0  0  0  0
    2.6150   -6.3372   13.0527 H   0  0  0  0  0  0  0  0  0  0  0  0
    2.5557   -6.9613   14.7354 H   0  0  0  0  0  0  0  0  0  0  0  0
    3.9650   -6.1251   14.1660 H   0  0  0  0  0  0  0  0  0  0  0  0
    4.1377   -3.7952   14.0753 H   0  0  0  0  0  0  0  0  0  0  0  0
    3.3569   -1.6316   14.9626 H   0  0  0  0  0  0  0  0  0  0  0  0
   -0.3370   -3.1589   15.9144 H   0  0  0  0  0  0  0  0  0  0  0  0
   -1.1477   -5.1429   14.8992 H   0  0  0  0  0  0  0  0  0  0  0  0
   -1.0394   -7.1501   13.6315 H   0  0  0  0  0  0  0  0  0  0  0  0
    0.0499   -5.9751   12.9112 H   0  0  0  0  0  0  0  0  0  0  0  0
    0.6855   -7.3133   13.8715 H   0  0  0  0  0  0  0  0  0  0  0  0
   -0.3414   -6.1396   17.2383 H   0  0  0  0  0  0  0  0  0  0  0  0
   -2.2606   -7.2131   18.5449 H   0  0  0  0  0  0  0  0  0  0  0  0
   -0.7111   -8.1053   18.5580 H   0  0  0  0  0  0  0  0  0  0  0  0
   -2.0602   -9.0242   20.7264 H   0  0  0  0  0  0  0  0  0  0  0  0
   -3.4246  -11.4350   20.8960 H   0  0  0  0  0  0  0  0  0  0  0  0
   -3.2809  -10.2584   16.8901 H   0  0  0  0  0  0  0  0  0  0  0  0
  1  2  1  0
  2  3  2  0
  3  4  1  0
  4  5  2  0
  5  6  1  0
  6  7  2  0
  7  8  1  0
  8  9  1  0
  8 10  1  0
 10 11  1  0
 11 12  2  0
 11 13  1  0
 13 14  1  0
 14 15  1  0
 15 16  2  0
 16 17  1  0
 17 18  2  0
  7  2  1  0
 18 14  1  0
  1 19  1  0
  1 20  1  0
  1 21  1  0
  3 22  1  0
  4 23  1  0
  6 24  1  0
  8 25  1  0
  9 26  1  0
  9 27  1  0
  9 28  1  0
 10 29  1  0
 13 30  1  0
 13 31  1  0
 15 32  1  0
 16 33  1  0
 18 34  1  0
M  END
>  <Energy>  (468) 
53.677691605097046

>  <compound_id>  (468) 
69435

>  <target_id>  (468) 
1

>  <reference_id>  (468) 
97

>  <inspiration_ids>  (468) 
[97, 35]

>  <energy_score>  (468) 
2.127554007969138

>  <distance_score>  (468) 
17.315703368187005

>  <path>  (468) 
/opt/xchem-fragalysis-2/maxwin/BulkDock/SCRATCH/511015/C69435-P97/C69435-P97.minimised.mol

>  <scratch_subdir>  (468) 
/opt/xchem-fragalysis-2/maxwin/BulkDock/SCRATCH/511015/C69435-P97

>  <fragmenstein_runtime>  (468) 
7.927338361740112

>  <fragmenstein_outcome>  (468) 
too moved

>  <fragmenstein_mode>  (468) 
expansion

>  <fragmenstein_error>  (468) 


$$$$
C69435-P35
     RDKit          3D

 34 35  0  0  0  0  0  0  0  0999 V2000
    4.1490   -8.6119   13.2035 C   0  0  0  0  0  0  0  0  0  0  0  0
    5.1055   -9.7815   13.3000 C   0  0  0  0  0  0  0  0  0  0  0  0
    6.1062   -9.5857   12.2936 C   0  0  0  0  0  0  0  0  0  0  0  0
    6.8738  -10.6288   11.8549 C   0  0  0  0  0  0  0  0  0  0  0  0
    6.6638  -11.8649   12.2883 N   0  0  0  0  0  0  0  0  0  0  0  0
    5.7896  -12.0196   13.3359 C   0  0  0  0  0  0  0  0  0  0  0  0
    5.0707  -11.0203   14.0878 C   0  0  0  0  0  0  0  0  0  0  0  0
    4.0862  -11.4642   15.6299 C   0  0  0  0  0  0  0  0  0  0  0  0
    3.2021  -12.0533   14.1977 C   0  0  0  0  0  0  0  0  0  0  0  0
    3.4980  -12.2120   17.3538 N   0  0  0  0  0  0  0  0  0  0  0  0
    3.5545  -14.0168   17.9980 C   0  0  0  0  0  0  0  0  0  0  0  0
    4.1104  -14.9686   17.4423 O   0  0  0  0  0  0  0  0  0  0  0  0
    2.7901  -14.5124   19.1216 C   0  0  0  0  0  0  0  0  0  0  0  0
    1.9952  -16.0789   18.7350 N   0  0  0  0  0  0  0  0  0  0  0  0
    2.3247  -17.0059   17.7600 C   0  0  0  0  0  0  0  0  0  0  0  0
    1.4475  -18.0693   17.8663 C   0  0  0  0  0  0  0  0  0  0  0  0
    0.5628  -17.8854   18.8737 N   0  0  0  0  0  0  0  0  0  0  0  0
    0.9049  -16.7233   19.3830 C   0  0  0  0  0  0  0  0  0  0  0  0
    3.2991   -8.6441   13.8692 H   0  0  0  0  0  0  0  0  0  0  0  0
    3.7072   -8.6056   12.1976 H   0  0  0  0  0  0  0  0  0  0  0  0
    4.6656   -7.6558   13.3357 H   0  0  0  0  0  0  0  0  0  0  0  0
    6.2035   -8.6397   11.7705 H   0  0  0  0  0  0  0  0  0  0  0  0
    7.6129  -10.5127   11.0705 H   0  0  0  0  0  0  0  0  0  0  0  0
    5.7570  -13.0660   13.6247 H   0  0  0  0  0  0  0  0  0  0  0  0
    3.5714  -10.5860   15.9021 H   0  0  0  0  0  0  0  0  0  0  0  0
    2.8974  -11.2235   13.5327 H   0  0  0  0  0  0  0  0  0  0  0  0
    3.7315  -12.7133   13.5139 H   0  0  0  0  0  0  0  0  0  0  0  0
    2.2644  -12.5827   14.4237 H   0  0  0  0  0  0  0  0  0  0  0  0
    3.0555  -11.6184   18.0374 H   0  0  0  0  0  0  0  0  0  0  0  0
    1.9435  -14.1448   18.4935 H   0  0  0  0  0  0  0  0  0  0  0  0
    2.5395  -14.4218   20.1706 H   0  0  0  0  0  0  0  0  0  0  0  0
    3.1434  -16.8650   17.0741 H   0  0  0  0  0  0  0  0  0  0  0  0
    1.4282  -18.9587   17.2509 H   0  0  0  0  0  0  0  0  0  0  0  0
    0.4597  -16.3734   20.2945 H   0  0  0  0  0  0  0  0  0  0  0  0
  1  2  1  0
  2  3  2  0
  3  4  1  0
  4  5  2  0
  5  6  1  0
  6  7  2  0
  7  8  1  0
  8  9  1  0
  8 10  1  0
 10 11  1  0
 11 12  2  0
 11 13  1  0
 13 14  1  0
 14 15  1  0
 15 16  2  0
 16 17  1  0
 17 18  2  0
  7  2  1  0
 18 14  1  0
  1 19  1  0
  1 20  1  0
  1 21  1  0
  3 22  1  0
  4 23  1  0
  6 24  1  0
  8 25  1  0
  9 26  1  0
  9 27  1  0
  9 28  1  0
 10 29  1  0
 13 30  1  0
 13 31  1  0
 15 32  1  0
 16 33  1  0
 18 34  1  0
M  END
>  <Energy>  (469) 
445.63420048616246

>  <compound_id>  (469) 
69435

>  <target_id>  (469) 
1

>  <reference_id>  (469) 
35

>  <inspiration_ids>  (469) 
[97, 35]

>  <energy_score>  (469) 
394.08406288903154

>  <distance_score>  (469) 
16.21334452299729

>  <path>  (469) 
/opt/xchem-fragalysis-2/maxwin/BulkDock/SCRATCH/511015/C69435-P35/C69435-P35.minimised.mol

>  <scratch_subdir>  (469) 
/opt/xchem-fragalysis-2/maxwin/BulkDock/SCRATCH/511015/C69435-P35

>  <fragmenstein_runtime>  (469) 
11.832588911056519

>  <fragmenstein_outcome>  (469) 
too moved

>  <fragmenstein_mode>  (469) 
expansion

>  <fragmenstein_error>  (469) 


$$$$
C69436-P97
     RDKit          3D

 31 32  0  0  0  0  0  0  0  0999 V2000
   -1.4242  -12.9535   26.5418 C   0  0  0  0  0  0  0  0  0  0  0  0
    0.1064  -12.6701   26.8341 C   0  0  0  0  0  0  0  0  0  0  0  0
    1.4513  -13.0498   25.8580 N   0  0  0  0  0  0  0  0  0  0  0  0
    1.8939  -12.4976   24.2310 C   0  0  0  0  0  0  0  0  0  0  0  0
    1.2791  -11.8019   23.4517 O   0  0  0  0  0  0  0  0  0  0  0  0
    3.1707  -12.8520   23.6484 C   0  0  0  0  0  0  0  0  0  0  0  0
    3.8790  -11.6967   22.3644 N   0  0  0  0  0  0  0  0  0  0  0  0
    5.1907  -10.6013   22.5888 C   0  0  0  0  0  0  0  0  0  0  0  0
    6.1828  -10.8312   21.6211 C   0  0  0  0  0  0  0  0  0  0  0  0
    5.7981  -11.7767   20.6960 N   0  0  0  0  0  0  0  0  0  0  0  0
    4.6068  -12.2826   21.0083 C   0  0  0  0  0  0  0  0  0  0  0  0
    0.1013  -13.2151   28.3850 C   0  0  0  0  0  0  0  0  0  0  0  0
   -0.8273  -12.5925   29.2569 C   0  0  0  0  0  0  0  0  0  0  0  0
   -1.3888  -13.1464   30.3676 N   0  0  0  0  0  0  0  0  0  0  0  0
   -1.0555  -14.4243   30.6316 C   0  0  0  0  0  0  0  0  0  0  0  0
   -0.1269  -15.1268   29.8932 C   0  0  0  0  0  0  0  0  0  0  0  0
    0.0437  -16.4421   30.1306 F   0  0  0  0  0  0  0  0  0  0  0  0
    0.5396  -14.4724   28.8328 C   0  0  0  0  0  0  0  0  0  0  0  0
   -1.8795  -13.6927   27.2169 H   0  0  0  0  0  0  0  0  0  0  0  0
   -1.6711  -13.3618   25.5803 H   0  0  0  0  0  0  0  0  0  0  0  0
   -2.0127  -12.0431   26.6929 H   0  0  0  0  0  0  0  0  0  0  0  0
    0.2429  -11.5993   26.9809 H   0  0  0  0  0  0  0  0  0  0  0  0
    2.2195  -13.5475   26.2771 H   0  0  0  0  0  0  0  0  0  0  0  0
    3.8615  -12.9583   24.4302 H   0  0  0  0  0  0  0  0  0  0  0  0
    2.9671  -13.7851   23.1349 H   0  0  0  0  0  0  0  0  0  0  0  0
    5.1425   -9.8913   23.3887 H   0  0  0  0  0  0  0  0  0  0  0  0
    7.1314  -10.3192   21.5263 H   0  0  0  0  0  0  0  0  0  0  0  0
    4.0346  -13.0267   20.5190 H   0  0  0  0  0  0  0  0  0  0  0  0
   -1.2443  -11.6165   29.0107 H   0  0  0  0  0  0  0  0  0  0  0  0
   -1.5800  -14.8930   31.4573 H   0  0  0  0  0  0  0  0  0  0  0  0
    1.3024  -15.0190   28.2955 H   0  0  0  0  0  0  0  0  0  0  0  0
  1  2  1  0
  2  3  1  0
  3  4  1  0
  4  5  2  0
  4  6  1  0
  6  7  1  0
  7  8  1  0
  8  9  2  0
  9 10  1  0
 10 11  2  0
  2 12  1  0
 12 13  2  0
 13 14  1  0
 14 15  2  0
 15 16  1  0
 16 17  1  0
 16 18  2  0
 11  7  1  0
 18 12  1  0
  1 19  1  0
  1 20  1  0
  1 21  1  0
  2 22  1  0
  3 23  1  0
  6 24  1  0
  6 25  1  0
  8 26  1  0
  9 27  1  0
 11 28  1  0
 13 29  1  0
 15 30  1  0
 18 31  1  0
M  END
>  <Energy>  (470) 
251.72821707654978

>  <compound_id>  (470) 
69436

>  <target_id>  (470) 
1

>  <reference_id>  (470) 
97

>  <inspiration_ids>  (470) 
[97, 35]

>  <energy_score>  (470) 
210.18623698773456

>  <distance_score>  (470) 
15.238422062636085

>  <path>  (470) 
/opt/xchem-fragalysis-2/maxwin/BulkDock/SCRATCH/511015/C69436-P97/C69436-P97.minimised.mol

>  <scratch_subdir>  (470) 
/opt/xchem-fragalysis-2/maxwin/BulkDock/SCRATCH/511015/C69436-P97

>  <fragmenstein_runtime>  (470) 
7.882889270782471

>  <fragmenstein_outcome>  (470) 
too moved

>  <fragmenstein_mode>  (470) 
expansion

>  <fragmenstein_error>  (470) 


$$$$
C69436-P35
     RDKit          3D

 31 32  0  0  0  0  0  0  0  0999 V2000
   -3.7785  -17.8293   19.4952 C   0  0  0  0  0  0  0  0  0  0  0  0
   -2.6493  -18.8245   19.8014 C   0  0  0  0  0  0  0  0  0  0  0  0
   -1.3291  -18.1312   19.5421 N   0  0  0  0  0  0  0  0  0  0  0  0
   -0.8048  -17.4542   18.3139 C   0  0  0  0  0  0  0  0  0  0  0  0
   -1.3363  -17.2278   17.2604 O   0  0  0  0  0  0  0  0  0  0  0  0
    0.7036  -17.0694   18.4736 C   0  0  0  0  0  0  0  0  0  0  0  0
    1.3891  -16.0435   17.6133 N   0  0  0  0  0  0  0  0  0  0  0  0
    2.7669  -15.8884   17.5522 C   0  0  0  0  0  0  0  0  0  0  0  0
    3.0068  -14.6962   16.9085 C   0  0  0  0  0  0  0  0  0  0  0  0
    1.8227  -14.1276   16.5293 N   0  0  0  0  0  0  0  0  0  0  0  0
    0.8796  -14.9648   16.9326 C   0  0  0  0  0  0  0  0  0  0  0  0
   -2.8787  -19.5655   21.1707 C   0  0  0  0  0  0  0  0  0  0  0  0
   -1.8261  -20.1552   21.8690 C   0  0  0  0  0  0  0  0  0  0  0  0
   -1.9296  -20.8221   23.0575 N   0  0  0  0  0  0  0  0  0  0  0  0
   -3.1683  -20.9996   23.5659 C   0  0  0  0  0  0  0  0  0  0  0  0
   -4.3063  -20.5188   22.9602 C   0  0  0  0  0  0  0  0  0  0  0  0
   -5.5075  -20.7462   23.5224 F   0  0  0  0  0  0  0  0  0  0  0  0
   -4.1609  -19.7965   21.7602 C   0  0  0  0  0  0  0  0  0  0  0  0
   -4.7504  -18.3278   19.4268 H   0  0  0  0  0  0  0  0  0  0  0  0
   -3.8458  -17.0550   20.2661 H   0  0  0  0  0  0  0  0  0  0  0  0
   -3.6225  -17.3242   18.5369 H   0  0  0  0  0  0  0  0  0  0  0  0
   -2.6912  -19.6085   19.0341 H   0  0  0  0  0  0  0  0  0  0  0  0
   -0.5810  -18.2235   20.2160 H   0  0  0  0  0  0  0  0  0  0  0  0
    0.8469  -16.7156   19.4939 H   0  0  0  0  0  0  0  0  0  0  0  0
    1.2830  -17.9891   18.3290 H   0  0  0  0  0  0  0  0  0  0  0  0
    3.4448  -16.5980   18.0017 H   0  0  0  0  0  0  0  0  0  0  0  0
    3.9602  -14.2219   16.7124 H   0  0  0  0  0  0  0  0  0  0  0  0
   -0.1848  -14.8201   16.7918 H   0  0  0  0  0  0  0  0  0  0  0  0
   -0.8076  -20.1081   21.4901 H   0  0  0  0  0  0  0  0  0  0  0  0
   -3.2267  -21.5588   24.4939 H   0  0  0  0  0  0  0  0  0  0  0  0
   -5.0691  -19.4298   21.2896 H   0  0  0  0  0  0  0  0  0  0  0  0
  1  2  1  0
  2  3  1  0
  3  4  1  0
  4  5  2  0
  4  6  1  0
  6  7  1  0
  7  8  1  0
  8  9  2  0
  9 10  1  0
 10 11  2  0
  2 12  1  0
 12 13  2  0
 13 14  1  0
 14 15  2  0
 15 16  1  0
 16 17  1  0
 16 18  2  0
 11  7  1  0
 18 12  1  0
  1 19  1  0
  1 20  1  0
  1 21  1  0
  2 22  1  0
  3 23  1  0
  6 24  1  0
  6 25  1  0
  8 26  1  0
  9 27  1  0
 11 28  1  0
 13 29  1  0
 15 30  1  0
 18 31  1  0
M  END
>  <Energy>  (471) 
48.530147300577163

>  <compound_id>  (471) 
69436

>  <target_id>  (471) 
1

>  <reference_id>  (471) 
35

>  <inspiration_ids>  (471) 
[97, 35]

>  <energy_score>  (471) 
6.9881672117684275

>  <distance_score>  (471) 
16.12963734716922

>  <path>  (471) 
/opt/xchem-fragalysis-2/maxwin/BulkDock/SCRATCH/511015/C69436-P35/C69436-P35.minimised.mol

>  <scratch_subdir>  (471) 
/opt/xchem-fragalysis-2/maxwin/BulkDock/SCRATCH/511015/C69436-P35

>  <fragmenstein_runtime>  (471) 
22.886534452438354

>  <fragmenstein_outcome>  (471) 
too moved

>  <fragmenstein_mode>  (471) 
expansion

>  <fragmenstein_error>  (471) 


$$$$
C69439-P97
     RDKit          3D

 45 46  0  0  0  0  0  0  0  0999 V2000
    5.1417   -0.9534   11.7768 C   0  0  0  0  0  0  0  0  0  0  0  0
    4.5278   -2.2857   11.4090 C   0  0  0  0  0  0  0  0  0  0  0  0
    4.6711   -2.7251   10.3064 O   0  0  0  0  0  0  0  0  0  0  0  0
    3.8235   -2.8116   12.5431 N   0  0  0  0  0  0  0  0  0  0  0  0
    3.1539   -4.0674   12.7355 C   0  0  0  0  0  0  0  0  0  0  0  0
    2.6692   -4.3022   14.1680 C   0  0  0  0  0  0  0  0  0  0  0  0
    2.1758   -5.7626   14.3044 C   0  0  0  0  0  0  0  0  0  0  0  0
    0.9104   -6.0871   14.9942 C   0  0  0  0  0  0  0  0  0  0  0  0
    1.1537   -7.6376   15.3591 C   0  0  0  0  0  0  0  0  0  0  0  0
    2.7364   -8.1788   15.5339 N   0  0  0  0  0  0  0  0  0  0  0  0
    2.9424   -9.2553   17.1270 C   0  0  0  0  0  0  0  0  0  0  0  0
    3.2310   -8.7612   18.1773 O   0  0  0  0  0  0  0  0  0  0  0  0
    2.9651  -11.3284   17.2127 C   0  0  0  0  0  0  0  0  0  0  0  0
    3.1325  -13.1958   18.1379 C   0  0  0  0  0  0  0  0  0  0  0  0
    2.9758  -15.1488   17.6480 C   0  0  0  0  0  0  0  0  0  0  0  0
    2.3758  -16.5959   16.5926 N   0  0  0  0  0  0  0  0  0  0  0  0
    3.0274  -17.4274   15.5646 C   0  0  0  0  0  0  0  0  0  0  0  0
    2.4396  -18.6690   15.4105 C   0  0  0  0  0  0  0  0  0  0  0  0
    1.7238  -18.9971   16.4902 N   0  0  0  0  0  0  0  0  0  0  0  0
    1.7717  -17.9224   17.2348 C   0  0  0  0  0  0  0  0  0  0  0  0
    3.0148   -6.5886   15.2514 C   0  0  0  0  0  0  0  0  0  0  0  0
    4.3532   -0.2363   12.0208 H   0  0  0  0  0  0  0  0  0  0  0  0
    5.7168   -0.5676   10.9301 H   0  0  0  0  0  0  0  0  0  0  0  0
    5.8178   -1.0768   12.6275 H   0  0  0  0  0  0  0  0  0  0  0  0
    3.8443   -2.1275   13.2913 H   0  0  0  0  0  0  0  0  0  0  0  0
    3.8562   -4.8483   12.4230 H   0  0  0  0  0  0  0  0  0  0  0  0
    2.3125   -4.0969   12.0340 H   0  0  0  0  0  0  0  0  0  0  0  0
    1.8534   -3.6037   14.3878 H   0  0  0  0  0  0  0  0  0  0  0  0
    3.4847   -4.0792   14.8646 H   0  0  0  0  0  0  0  0  0  0  0  0
    2.1382   -6.2093   13.3013 H   0  0  0  0  0  0  0  0  0  0  0  0
    0.6657   -5.4016   15.7806 H   0  0  0  0  0  0  0  0  0  0  0  0
    0.0506   -5.9840   14.3135 H   0  0  0  0  0  0  0  0  0  0  0  0
    0.8442   -7.7489   14.3458 H   0  0  0  0  0  0  0  0  0  0  0  0
    0.5032   -8.0064   16.1467 H   0  0  0  0  0  0  0  0  0  0  0  0
    3.9555  -11.4499   17.5546 H   0  0  0  0  0  0  0  0  0  0  0  0
    3.2863  -11.5574   16.1977 H   0  0  0  0  0  0  0  0  0  0  0  0
    2.0878  -13.5611   18.3139 H   0  0  0  0  0  0  0  0  0  0  0  0
    3.9158  -13.1845   18.9136 H   0  0  0  0  0  0  0  0  0  0  0  0
    4.0220  -15.3648   17.8242 H   0  0  0  0  0  0  0  0  0  0  0  0
    2.3581  -15.3890   18.4675 H   0  0  0  0  0  0  0  0  0  0  0  0
    4.0276  -17.2202   15.2364 H   0  0  0  0  0  0  0  0  0  0  0  0
    2.6913  -19.4143   14.6674 H   0  0  0  0  0  0  0  0  0  0  0  0
    1.3457  -17.8870   18.2195 H   0  0  0  0  0  0  0  0  0  0  0  0
    3.7058   -6.8321   14.4131 H   0  0  0  0  0  0  0  0  0  0  0  0
    3.9044   -6.1047   15.7285 H   0  0  0  0  0  0  0  0  0  0  0  0
  1  2  1  0
  2  3  2  0
  2  4  1  0
  4  5  1  0
  5  6  1  0
  6  7  1  0
  7  8  1  0
  8  9  1  0
  9 10  1  0
 10 11  1  0
 11 12  2  0
 11 13  1  0
 13 14  1  0
 14 15  1  0
 15 16  1  0
 16 17  1  0
 17 18  2  0
 18 19  1  0
 19 20  2  0
 10 21  1  0
 21  7  1  0
 20 16  1  0
  1 22  1  0
  1 23  1  0
  1 24  1  0
  4 25  1  0
  5 26  1  0
  5 27  1  0
  6 28  1  0
  6 29  1  0
  7 30  1  0
  8 31  1  0
  8 32  1  0
  9 33  1  0
  9 34  1  0
 13 35  1  0
 13 36  1  0
 14 37  1  0
 14 38  1  0
 15 39  1  0
 15 40  1  0
 17 41  1  0
 18 42  1  0
 20 43  1  0
 21 44  1  0
 21 45  1  0
M  END
>  <Energy>  (472) 
662.17171107929869

>  <compound_id>  (472) 
69439

>  <target_id>  (472) 
1

>  <reference_id>  (472) 
97

>  <inspiration_ids>  (472) 
[97, 35]

>  <energy_score>  (472) 
656.0766241520732

>  <distance_score>  (472) 
16.20188703515102

>  <path>  (472) 
/opt/xchem-fragalysis-2/maxwin/BulkDock/SCRATCH/511015/C69439-P97/C69439-P97.minimised.mol

>  <scratch_subdir>  (472) 
/opt/xchem-fragalysis-2/maxwin/BulkDock/SCRATCH/511015/C69439-P97

>  <fragmenstein_runtime>  (472) 
15.1475350856781

>  <fragmenstein_outcome>  (472) 
too moved

>  <fragmenstein_mode>  (472) 
expansion

>  <fragmenstein_error>  (472) 


$$$$
C69439-P35
     RDKit          3D

 45 46  0  0  0  0  0  0  0  0999 V2000
   11.6080   -7.0183   19.7399 C   0  0  0  0  0  0  0  0  0  0  0  0
   11.7338   -8.5257   19.6482 C   0  0  0  0  0  0  0  0  0  0  0  0
   12.0789   -9.1530   20.6058 O   0  0  0  0  0  0  0  0  0  0  0  0
   11.3345   -8.9587   18.3371 N   0  0  0  0  0  0  0  0  0  0  0  0
   11.3161  -10.2753   17.7380 C   0  0  0  0  0  0  0  0  0  0  0  0
    9.9303  -10.9177   17.7927 C   0  0  0  0  0  0  0  0  0  0  0  0
    9.4881  -11.2868   19.2486 C   0  0  0  0  0  0  0  0  0  0  0  0
   10.0501  -12.4977   19.9944 C   0  0  0  0  0  0  0  0  0  0  0  0
    8.8487  -13.4620   20.4634 C   0  0  0  0  0  0  0  0  0  0  0  0
    7.0838  -12.7935   20.4859 N   0  0  0  0  0  0  0  0  0  0  0  0
    6.4991  -13.0366   21.7273 C   0  0  0  0  0  0  0  0  0  0  0  0
    6.7194  -12.0010   22.5526 O   0  0  0  0  0  0  0  0  0  0  0  0
    5.3677  -14.8667   22.9564 C   0  0  0  0  0  0  0  0  0  0  0  0
    5.1466  -15.5766   24.5784 C   0  0  0  0  0  0  0  0  0  0  0  0
    3.6339  -15.7900   25.2175 C   0  0  0  0  0  0  0  0  0  0  0  0
    3.1879  -17.0051   25.9267 N   0  0  0  0  0  0  0  0  0  0  0  0
    3.4743  -18.3242   25.6807 C   0  0  0  0  0  0  0  0  0  0  0  0
    2.6083  -19.0614   26.4669 C   0  0  0  0  0  0  0  0  0  0  0  0
    1.7986  -18.2406   27.2023 N   0  0  0  0  0  0  0  0  0  0  0  0
    2.1763  -17.0210   26.8771 C   0  0  0  0  0  0  0  0  0  0  0  0
    7.9496  -11.3797   19.6626 C   0  0  0  0  0  0  0  0  0  0  0  0
   12.0348   -6.5328   18.8581 H   0  0  0  0  0  0  0  0  0  0  0  0
   12.1531   -6.6600   20.6183 H   0  0  0  0  0  0  0  0  0  0  0  0
   10.5529   -6.7511   19.8409 H   0  0  0  0  0  0  0  0  0  0  0  0
   11.1880   -8.1448   17.7508 H   0  0  0  0  0  0  0  0  0  0  0  0
   12.0532  -10.9010   18.2515 H   0  0  0  0  0  0  0  0  0  0  0  0
   11.6207  -10.1623   16.6936 H   0  0  0  0  0  0  0  0  0  0  0  0
    9.2033  -10.2193   17.3701 H   0  0  0  0  0  0  0  0  0  0  0  0
    9.9575  -11.7876   17.1309 H   0  0  0  0  0  0  0  0  0  0  0  0
    9.9015  -10.3854   19.6774 H   0  0  0  0  0  0  0  0  0  0  0  0
   10.6183  -12.1965   20.8829 H   0  0  0  0  0  0  0  0  0  0  0  0
   10.7687  -13.0663   19.3910 H   0  0  0  0  0  0  0  0  0  0  0  0
    9.0499  -13.6005   21.5310 H   0  0  0  0  0  0  0  0  0  0  0  0
    8.8815  -14.5030   20.0886 H   0  0  0  0  0  0  0  0  0  0  0  0
    5.1900  -14.4646   21.4637 H   0  0  0  0  0  0  0  0  0  0  0  0
    4.1025  -15.0684   23.0699 H   0  0  0  0  0  0  0  0  0  0  0  0
    5.6611  -16.5450   24.5929 H   0  0  0  0  0  0  0  0  0  0  0  0
    5.6587  -14.9323   25.3067 H   0  0  0  0  0  0  0  0  0  0  0  0
    3.5433  -14.9997   25.9731 H   0  0  0  0  0  0  0  0  0  0  0  0
    2.8623  -15.5725   24.4825 H   0  0  0  0  0  0  0  0  0  0  0  0
    4.2250  -18.6261   24.9651 H   0  0  0  0  0  0  0  0  0  0  0  0
    2.5298  -20.1387   26.5320 H   0  0  0  0  0  0  0  0  0  0  0  0
    1.7435  -16.1044   27.2580 H   0  0  0  0  0  0  0  0  0  0  0  0
    6.9934  -11.0816   19.1186 H   0  0  0  0  0  0  0  0  0  0  0  0
    7.6876  -10.3624   19.8429 H   0  0  0  0  0  0  0  0  0  0  0  0
  1  2  1  0
  2  3  2  0
  2  4  1  0
  4  5  1  0
  5  6  1  0
  6  7  1  0
  7  8  1  0
  8  9  1  0
  9 10  1  0
 10 11  1  0
 11 12  2  0
 11 13  1  0
 13 14  1  0
 14 15  1  0
 15 16  1  0
 16 17  1  0
 17 18  2  0
 18 19  1  0
 19 20  2  0
 10 21  1  0
 21  7  1  0
 20 16  1  0
  1 22  1  0
  1 23  1  0
  1 24  1  0
  4 25  1  0
  5 26  1  0
  5 27  1  0
  6 28  1  0
  6 29  1  0
  7 30  1  0
  8 31  1  0
  8 32  1  0
  9 33  1  0
  9 34  1  0
 13 35  1  0
 13 36  1  0
 14 37  1  0
 14 38  1  0
 15 39  1  0
 15 40  1  0
 17 41  1  0
 18 42  1  0
 20 43  1  0
 21 44  1  0
 21 45  1  0
M  END
>  <Energy>  (473) 
809.8387244749531

>  <compound_id>  (473) 
69439

>  <target_id>  (473) 
1

>  <reference_id>  (473) 
35

>  <inspiration_ids>  (473) 
[97, 35]

>  <energy_score>  (473) 
803.7436375477139

>  <distance_score>  (473) 
13.80321744318635

>  <path>  (473) 
/opt/xchem-fragalysis-2/maxwin/BulkDock/SCRATCH/511015/C69439-P35/C69439-P35.minimised.mol

>  <scratch_subdir>  (473) 
/opt/xchem-fragalysis-2/maxwin/BulkDock/SCRATCH/511015/C69439-P35

>  <fragmenstein_runtime>  (473) 
23.42524266242981

>  <fragmenstein_outcome>  (473) 
too moved

>  <fragmenstein_mode>  (473) 
expansion

>  <fragmenstein_error>  (473) 


$$$$
C43301-P97
     RDKit          3D

 45 46  0  0  0  0  0  0  0  0999 V2000
   10.1092  -15.5958   25.5043 C   0  0  0  0  0  0  0  0  0  0  0  0
    9.3547  -16.7308   26.1672 C   0  0  0  0  0  0  0  0  0  0  0  0
    9.9355  -17.5070   26.8670 O   0  0  0  0  0  0  0  0  0  0  0  0
    7.9705  -16.6442   25.8147 N   0  0  0  0  0  0  0  0  0  0  0  0
    6.8667  -17.5125   26.1125 C   0  0  0  0  0  0  0  0  0  0  0  0
    5.5990  -16.7052   26.3680 C   0  0  0  0  0  0  0  0  0  0  0  0
    4.3402  -17.5350   26.7275 C   0  0  0  0  0  0  0  0  0  0  0  0
    3.9001  -18.4795   25.7366 C   0  0  0  0  0  0  0  0  0  0  0  0
    4.2346  -19.5151   26.9050 C   0  0  0  0  0  0  0  0  0  0  0  0
    3.2066  -19.5095   28.3711 N   0  0  0  0  0  0  0  0  0  0  0  0
    2.2645  -20.5330   28.2091 C   0  0  0  0  0  0  0  0  0  0  0  0
    2.4602  -21.6792   28.6094 O   0  0  0  0  0  0  0  0  0  0  0  0
    0.8780  -20.2213   27.6186 C   0  0  0  0  0  0  0  0  0  0  0  0
   -0.2721  -20.5443   28.6680 C   0  0  0  0  0  0  0  0  0  0  0  0
   -1.0249  -19.2509   29.0119 C   0  0  0  0  0  0  0  0  0  0  0  0
   -1.2395  -21.6036   28.3502 N   0  0  0  0  0  0  0  0  0  0  0  0
   -2.0667  -21.6859   27.2622 C   0  0  0  0  0  0  0  0  0  0  0  0
   -2.9183  -22.7368   27.5231 C   0  0  0  0  0  0  0  0  0  0  0  0
   -2.6475  -23.2953   28.7425 N   0  0  0  0  0  0  0  0  0  0  0  0
   -1.6375  -22.5977   29.2167 C   0  0  0  0  0  0  0  0  0  0  0  0
    4.4194  -18.9314   27.5662 C   0  0  0  0  0  0  0  0  0  0  0  0
   10.1262  -15.7450   24.4213 H   0  0  0  0  0  0  0  0  0  0  0  0
    9.6406  -14.6369   25.7440 H   0  0  0  0  0  0  0  0  0  0  0  0
   11.1393  -15.5764   25.8726 H   0  0  0  0  0  0  0  0  0  0  0  0
    7.8481  -15.8987   25.1251 H   0  0  0  0  0  0  0  0  0  0  0  0
    6.7490  -18.1803   25.2544 H   0  0  0  0  0  0  0  0  0  0  0  0
    7.1445  -18.1174   26.9798 H   0  0  0  0  0  0  0  0  0  0  0  0
    5.7911  -16.0127   27.1974 H   0  0  0  0  0  0  0  0  0  0  0  0
    5.3565  -16.0902   25.4967 H   0  0  0  0  0  0  0  0  0  0  0  0
    3.5549  -16.9035   27.1468 H   0  0  0  0  0  0  0  0  0  0  0  0
    2.8303  -18.4655   25.5164 H   0  0  0  0  0  0  0  0  0  0  0  0
    4.5225  -18.6232   24.8513 H   0  0  0  0  0  0  0  0  0  0  0  0
    5.0544  -20.4026   26.7358 H   0  0  0  0  0  0  0  0  0  0  0  0
    3.5613  -20.3072   26.3776 H   0  0  0  0  0  0  0  0  0  0  0  0
    0.7634  -20.8280   26.7138 H   0  0  0  0  0  0  0  0  0  0  0  0
    0.8567  -19.1667   27.3221 H   0  0  0  0  0  0  0  0  0  0  0  0
    0.2062  -20.8767   29.5995 H   0  0  0  0  0  0  0  0  0  0  0  0
   -1.5368  -18.8424   28.1335 H   0  0  0  0  0  0  0  0  0  0  0  0
   -0.3336  -18.4889   29.3874 H   0  0  0  0  0  0  0  0  0  0  0  0
   -1.7806  -19.4271   29.7856 H   0  0  0  0  0  0  0  0  0  0  0  0
   -1.9973  -21.0066   26.4249 H   0  0  0  0  0  0  0  0  0  0  0  0
   -3.7159  -23.1058   26.8926 H   0  0  0  0  0  0  0  0  0  0  0  0
   -1.1608  -22.7555   30.1759 H   0  0  0  0  0  0  0  0  0  0  0  0
    4.4863  -18.2098   28.4818 H   0  0  0  0  0  0  0  0  0  0  0  0
    5.5147  -19.1820   28.0968 H   0  0  0  0  0  0  0  0  0  0  0  0
  1  2  1  0
  2  3  2  0
  2  4  1  0
  4  5  1  0
  5  6  1  0
  6  7  1  0
  7  8  1  0
  8  9  1  0
  9 10  1  0
 10 11  1  0
 11 12  2  0
 11 13  1  0
 13 14  1  0
 14 15  1  0
 14 16  1  0
 16 17  1  0
 17 18  2  0
 18 19  1  0
 19 20  2  0
 10 21  1  0
 21  7  1  0
 20 16  1  0
  1 22  1  0
  1 23  1  0
  1 24  1  0
  4 25  1  0
  5 26  1  0
  5 27  1  0
  6 28  1  0
  6 29  1  0
  7 30  1  0
  8 31  1  0
  8 32  1  0
  9 33  1  0
  9 34  1  0
 13 35  1  0
 13 36  1  0
 14 37  1  0
 15 38  1  0
 15 39  1  0
 15 40  1  0
 17 41  1  0
 18 42  1  0
 20 43  1  0
 21 44  1  0
 21 45  1  0
M  END
>  <Energy>  (474) 
517.85071644091568

>  <compound_id>  (474) 
43301

>  <target_id>  (474) 
1

>  <reference_id>  (474) 
97

>  <inspiration_ids>  (474) 
[97, 35]

>  <energy_score>  (474) 
519.592564161863

>  <distance_score>  (474) 
18.913075664696947

>  <path>  (474) 
/opt/xchem-fragalysis-2/maxwin/BulkDock/SCRATCH/511015/C43301-P97/C43301-P97.minimised.mol

>  <scratch_subdir>  (474) 
/opt/xchem-fragalysis-2/maxwin/BulkDock/SCRATCH/511015/C43301-P97

>  <fragmenstein_runtime>  (474) 
14.886652946472168

>  <fragmenstein_outcome>  (474) 
too moved

>  <fragmenstein_mode>  (474) 
expansion

>  <fragmenstein_error>  (474) 


$$$$
C43301-P35
     RDKit          3D

 45 46  0  0  0  0  0  0  0  0999 V2000
   -4.0428   -9.8707   13.3887 C   0  0  0  0  0  0  0  0  0  0  0  0
   -4.6887  -10.4009   14.6540 C   0  0  0  0  0  0  0  0  0  0  0  0
   -5.4896  -11.2855   14.5905 O   0  0  0  0  0  0  0  0  0  0  0  0
   -4.1705   -9.6869   15.7833 N   0  0  0  0  0  0  0  0  0  0  0  0
   -4.5190   -9.7456   17.1752 C   0  0  0  0  0  0  0  0  0  0  0  0
   -3.5781  -10.6163   18.0207 C   0  0  0  0  0  0  0  0  0  0  0  0
   -4.2174  -10.7938   19.3927 C   0  0  0  0  0  0  0  0  0  0  0  0
   -3.5622  -11.6035   20.3639 C   0  0  0  0  0  0  0  0  0  0  0  0
   -5.1065  -12.1904   20.5090 C   0  0  0  0  0  0  0  0  0  0  0  0
   -5.3062  -13.6589   19.9699 N   0  0  0  0  0  0  0  0  0  0  0  0
   -4.8627  -14.5377   20.9920 C   0  0  0  0  0  0  0  0  0  0  0  0
   -3.7055  -14.9446   21.0557 O   0  0  0  0  0  0  0  0  0  0  0  0
   -5.9240  -15.1022   22.0146 C   0  0  0  0  0  0  0  0  0  0  0  0
   -6.0757  -16.6895   22.1690 C   0  0  0  0  0  0  0  0  0  0  0  0
   -4.8337  -17.4838   21.7493 C   0  0  0  0  0  0  0  0  0  0  0  0
   -6.5440  -17.1999   23.4803 N   0  0  0  0  0  0  0  0  0  0  0  0
   -7.6444  -18.0011   23.6977 C   0  0  0  0  0  0  0  0  0  0  0  0
   -7.5745  -18.3832   25.0198 C   0  0  0  0  0  0  0  0  0  0  0  0
   -6.4567  -17.8669   25.6128 N   0  0  0  0  0  0  0  0  0  0  0  0
   -5.8519  -17.1785   24.6671 C   0  0  0  0  0  0  0  0  0  0  0  0
   -5.4109  -11.8736   19.7190 C   0  0  0  0  0  0  0  0  0  0  0  0
   -4.4790  -10.3700   12.5185 H   0  0  0  0  0  0  0  0  0  0  0  0
   -2.9679  -10.0680   13.4012 H   0  0  0  0  0  0  0  0  0  0  0  0
   -4.2251   -8.7962   13.2973 H   0  0  0  0  0  0  0  0  0  0  0  0
   -3.4347   -9.0498   15.4662 H   0  0  0  0  0  0  0  0  0  0  0  0
   -4.5218   -8.7172   17.5519 H   0  0  0  0  0  0  0  0  0  0  0  0
   -5.5438  -10.1285   17.2311 H   0  0  0  0  0  0  0  0  0  0  0  0
   -3.4453  -11.5974   17.5539 H   0  0  0  0  0  0  0  0  0  0  0  0
   -2.5949  -10.1428   18.1103 H   0  0  0  0  0  0  0  0  0  0  0  0
   -4.5136   -9.8172   19.8027 H   0  0  0  0  0  0  0  0  0  0  0  0
   -3.2210  -11.0213   21.2213 H   0  0  0  0  0  0  0  0  0  0  0  0
   -2.8523  -12.3524   20.0036 H   0  0  0  0  0  0  0  0  0  0  0  0
   -5.9008  -11.7875   21.4034 H   0  0  0  0  0  0  0  0  0  0  0  0
   -4.7415  -12.5610   21.5279 H   0  0  0  0  0  0  0  0  0  0  0  0
   -6.9063  -14.6831   21.7657 H   0  0  0  0  0  0  0  0  0  0  0  0
   -5.6467  -14.6775   22.9878 H   0  0  0  0  0  0  0  0  0  0  0  0
   -6.8717  -16.9728   21.4657 H   0  0  0  0  0  0  0  0  0  0  0  0
   -3.9615  -17.2164   22.3552 H   0  0  0  0  0  0  0  0  0  0  0  0
   -4.5954  -17.3152   20.6945 H   0  0  0  0  0  0  0  0  0  0  0  0
   -4.9971  -18.5613   21.8697 H   0  0  0  0  0  0  0  0  0  0  0  0
   -8.3564  -18.2289   22.9173 H   0  0  0  0  0  0  0  0  0  0  0  0
   -8.2663  -18.9975   25.5772 H   0  0  0  0  0  0  0  0  0  0  0  0
   -4.9086  -16.6591   24.7785 H   0  0  0  0  0  0  0  0  0  0  0  0
   -6.5346  -11.4324   19.6555 H   0  0  0  0  0  0  0  0  0  0  0  0
   -5.5765  -12.0949   18.5834 H   0  0  0  0  0  0  0  0  0  0  0  0
  1  2  1  0
  2  3  2  0
  2  4  1  0
  4  5  1  0
  5  6  1  0
  6  7  1  0
  7  8  1  0
  8  9  1  0
  9 10  1  0
 10 11  1  0
 11 12  2  0
 11 13  1  0
 13 14  1  0
 14 15  1  0
 14 16  1  0
 16 17  1  0
 17 18  2  0
 18 19  1  0
 19 20  2  0
 10 21  1  0
 21  7  1  0
 20 16  1  0
  1 22  1  0
  1 23  1  0
  1 24  1  0
  4 25  1  0
  5 26  1  0
  5 27  1  0
  6 28  1  0
  6 29  1  0
  7 30  1  0
  8 31  1  0
  8 32  1  0
  9 33  1  0
  9 34  1  0
 13 35  1  0
 13 36  1  0
 14 37  1  0
 15 38  1  0
 15 39  1  0
 15 40  1  0
 17 41  1  0
 18 42  1  0
 20 43  1  0
 21 44  1  0
 21 45  1  0
M  END
>  <Energy>  (475) 
536.68057161215199

>  <compound_id>  (475) 
43301

>  <target_id>  (475) 
1

>  <reference_id>  (475) 
35

>  <inspiration_ids>  (475) 
[97, 35]

>  <energy_score>  (475) 
538.4224193330897

>  <distance_score>  (475) 
19.09510011010659

>  <path>  (475) 
/opt/xchem-fragalysis-2/maxwin/BulkDock/SCRATCH/511015/C43301-P35/C43301-P35.minimised.mol

>  <scratch_subdir>  (475) 
/opt/xchem-fragalysis-2/maxwin/BulkDock/SCRATCH/511015/C43301-P35

>  <fragmenstein_runtime>  (475) 
25.108272552490234

>  <fragmenstein_outcome>  (475) 
too moved

>  <fragmenstein_mode>  (475) 
expansion

>  <fragmenstein_error>  (475) 


$$$$
C69441-P97
     RDKit          3D

 46 47  0  0  0  0  0  0  0  0999 V2000
   -2.6889   -6.6824   16.0288 C   0  0  0  0  0  0  0  0  0  0  0  0
   -2.8920   -8.0808   16.5759 C   0  0  0  0  0  0  0  0  0  0  0  0
   -2.6537   -9.0309   15.8904 O   0  0  0  0  0  0  0  0  0  0  0  0
   -3.3343   -7.9957   17.9327 N   0  0  0  0  0  0  0  0  0  0  0  0
   -3.7211   -9.0225   18.8673 C   0  0  0  0  0  0  0  0  0  0  0  0
   -2.5326   -9.8870   19.2866 C   0  0  0  0  0  0  0  0  0  0  0  0
   -2.8897  -10.9886   20.3253 C   0  0  0  0  0  0  0  0  0  0  0  0
   -4.1615  -12.1365   19.8215 C   0  0  0  0  0  0  0  0  0  0  0  0
   -4.5108  -13.6551   20.5146 N   0  0  0  0  0  0  0  0  0  0  0  0
   -5.5911  -14.2563   21.2052 C   0  0  0  0  0  0  0  0  0  0  0  0
   -6.4913  -14.8462   20.6052 O   0  0  0  0  0  0  0  0  0  0  0  0
   -5.6707  -14.3341   22.7483 C   0  0  0  0  0  0  0  0  0  0  0  0
   -5.5008  -15.7778   23.3790 C   0  0  0  0  0  0  0  0  0  0  0  0
   -6.8025  -16.5944   23.7202 C   0  0  0  0  0  0  0  0  0  0  0  0
   -6.6643  -17.7081   24.6678 N   0  0  0  0  0  0  0  0  0  0  0  0
   -6.3599  -19.0143   24.3780 C   0  0  0  0  0  0  0  0  0  0  0  0
   -6.4787  -19.7000   25.5691 C   0  0  0  0  0  0  0  0  0  0  0  0
   -6.8666  -18.8552   26.5762 N   0  0  0  0  0  0  0  0  0  0  0  0
   -6.9831  -17.6754   26.0046 C   0  0  0  0  0  0  0  0  0  0  0  0
   -4.9752  -11.9945   20.1919 C   0  0  0  0  0  0  0  0  0  0  0  0
   -4.7713  -10.8004   21.4832 C   0  0  0  0  0  0  0  0  0  0  0  0
   -3.4166  -10.3718   21.4911 O   0  0  0  0  0  0  0  0  0  0  0  0
   -3.6175   -6.1098   16.1063 H   0  0  0  0  0  0  0  0  0  0  0  0
   -1.8903   -6.1794   16.5810 H   0  0  0  0  0  0  0  0  0  0  0  0
   -2.4046   -6.7391   14.9738 H   0  0  0  0  0  0  0  0  0  0  0  0
   -3.3528   -7.0210   18.2136 H   0  0  0  0  0  0  0  0  0  0  0  0
   -4.1715   -8.5168   19.7259 H   0  0  0  0  0  0  0  0  0  0  0  0
   -4.4832   -9.6341   18.3754 H   0  0  0  0  0  0  0  0  0  0  0  0
   -2.1121  -10.3672   18.3989 H   0  0  0  0  0  0  0  0  0  0  0  0
   -1.7830   -9.2201   19.7265 H   0  0  0  0  0  0  0  0  0  0  0  0
   -1.9956  -11.5528   20.5998 H   0  0  0  0  0  0  0  0  0  0  0  0
   -4.2093  -12.1345   18.5810 H   0  0  0  0  0  0  0  0  0  0  0  0
   -3.2128  -12.7375   19.4953 H   0  0  0  0  0  0  0  0  0  0  0  0
   -4.9252  -13.6765   23.1866 H   0  0  0  0  0  0  0  0  0  0  0  0
   -6.6411  -13.9189   23.0456 H   0  0  0  0  0  0  0  0  0  0  0  0
   -4.8678  -16.3899   22.7266 H   0  0  0  0  0  0  0  0  0  0  0  0
   -4.9469  -15.6482   24.3181 H   0  0  0  0  0  0  0  0  0  0  0  0
   -7.2291  -17.0087   22.7995 H   0  0  0  0  0  0  0  0  0  0  0  0
   -7.5496  -15.9176   24.1517 H   0  0  0  0  0  0  0  0  0  0  0  0
   -6.0928  -19.3398   23.3819 H   0  0  0  0  0  0  0  0  0  0  0  0
   -6.3121  -20.7547   25.7475 H   0  0  0  0  0  0  0  0  0  0  0  0
   -7.2942  -16.7678   26.5038 H   0  0  0  0  0  0  0  0  0  0  0  0
   -5.8625  -11.7646   19.3715 H   0  0  0  0  0  0  0  0  0  0  0  0
   -5.9738  -12.1842   20.7554 H   0  0  0  0  0  0  0  0  0  0  0  0
   -5.4239   -9.9496   21.2596 H   0  0  0  0  0  0  0  0  0  0  0  0
   -5.0320  -11.2437   22.4497 H   0  0  0  0  0  0  0  0  0  0  0  0
  1  2  1  0
  2  3  2  0
  2  4  1  0
  4  5  1  0
  5  6  1  0
  6  7  1  0
  7  8  1  0
  8  9  1  0
  9 10  1  0
 10 11  2  0
 10 12  1  0
 12 13  1  0
 13 14  1  0
 14 15  1  0
 15 16  1  0
 16 17  2  0
 17 18  1  0
 18 19  2  0
  9 20  1  0
 20 21  1  0
 21 22  1  0
 22  7  1  0
 19 15  1  0
  1 23  1  0
  1 24  1  0
  1 25  1  0
  4 26  1  0
  5 27  1  0
  5 28  1  0
  6 29  1  0
  6 30  1  0
  7 31  1  0
  8 32  1  0
  8 33  1  0
 12 34  1  0
 12 35  1  0
 13 36  1  0
 13 37  1  0
 14 38  1  0
 14 39  1  0
 16 40  1  0
 17 41  1  0
 19 42  1  0
 20 43  1  0
 20 44  1  0
 21 45  1  0
 21 46  1  0
M  END
>  <Energy>  (476) 
590.2076056695231

>  <compound_id>  (476) 
69441

>  <target_id>  (476) 
1

>  <reference_id>  (476) 
97

>  <inspiration_ids>  (476) 
[97, 35]

>  <energy_score>  (476) 
536.6780128659866

>  <distance_score>  (476) 
18.09463426059592

>  <path>  (476) 
/opt/xchem-fragalysis-2/maxwin/BulkDock/SCRATCH/511015/C69441-P97/C69441-P97.minimised.mol

>  <scratch_subdir>  (476) 
/opt/xchem-fragalysis-2/maxwin/BulkDock/SCRATCH/511015/C69441-P97

>  <fragmenstein_runtime>  (476) 
18.951988458633423

>  <fragmenstein_outcome>  (476) 
too moved

>  <fragmenstein_mode>  (476) 
expansion

>  <fragmenstein_error>  (476) 


$$$$
C69441-P35
     RDKit          3D

 46 47  0  0  0  0  0  0  0  0999 V2000
   13.9165   -4.3506   16.6973 C   0  0  0  0  0  0  0  0  0  0  0  0
   12.4654   -4.7081   16.4484 C   0  0  0  0  0  0  0  0  0  0  0  0
   11.7053   -3.7776   16.5060 O   0  0  0  0  0  0  0  0  0  0  0  0
   12.2153   -6.1432   16.1639 N   0  0  0  0  0  0  0  0  0  0  0  0
   10.9479   -6.8607   15.7608 C   0  0  0  0  0  0  0  0  0  0  0  0
    9.8391   -8.6927   15.5692 C   0  0  0  0  0  0  0  0  0  0  0  0
   10.0118  -10.2539   16.8252 C   0  0  0  0  0  0  0  0  0  0  0  0
    9.0715  -11.1737   18.4471 C   0  0  0  0  0  0  0  0  0  0  0  0
    7.3262  -10.7349   19.5195 N   0  0  0  0  0  0  0  0  0  0  0  0
    6.1087  -12.2507   19.8337 C   0  0  0  0  0  0  0  0  0  0  0  0
    5.3347  -12.2600   18.9345 O   0  0  0  0  0  0  0  0  0  0  0  0
    5.4537  -13.7726   21.2422 C   0  0  0  0  0  0  0  0  0  0  0  0
    4.6787  -15.0097   23.1395 C   0  0  0  0  0  0  0  0  0  0  0  0
    5.1947  -15.7548   24.8129 C   0  0  0  0  0  0  0  0  0  0  0  0
    4.7901  -15.7762   26.2499 N   0  0  0  0  0  0  0  0  0  0  0  0
    4.2583  -16.8923   26.9292 C   0  0  0  0  0  0  0  0  0  0  0  0
    3.9964  -16.4871   28.2129 C   0  0  0  0  0  0  0  0  0  0  0  0
    4.4226  -15.2025   28.3785 N   0  0  0  0  0  0  0  0  0  0  0  0
    4.9436  -14.8345   27.2208 C   0  0  0  0  0  0  0  0  0  0  0  0
    8.6291  -10.5437   18.7591 C   0  0  0  0  0  0  0  0  0  0  0  0
    8.4653  -10.9418   16.7162 C   0  0  0  0  0  0  0  0  0  0  0  0
    9.6369  -11.2196   15.9859 O   0  0  0  0  0  0  0  0  0  0  0  0
   14.1740   -4.5341   17.7426 H   0  0  0  0  0  0  0  0  0  0  0  0
   14.5995   -4.8479   16.0149 H   0  0  0  0  0  0  0  0  0  0  0  0
   14.0461   -3.2767   16.5161 H   0  0  0  0  0  0  0  0  0  0  0  0
   13.0993   -6.6303   16.1137 H   0  0  0  0  0  0  0  0  0  0  0  0
   10.7776   -6.2753   14.9153 H   0  0  0  0  0  0  0  0  0  0  0  0
   10.7450   -6.4390   16.6719 H   0  0  0  0  0  0  0  0  0  0  0  0
   10.1493   -9.3845   14.7890 H   0  0  0  0  0  0  0  0  0  0  0  0
    8.8459   -8.4681   15.1550 H   0  0  0  0  0  0  0  0  0  0  0  0
   11.0931  -10.4207   16.9579 H   0  0  0  0  0  0  0  0  0  0  0  0
    9.7901  -12.0519   18.7672 H   0  0  0  0  0  0  0  0  0  0  0  0
   10.3000  -10.7843   18.8831 H   0  0  0  0  0  0  0  0  0  0  0  0
    4.4581  -13.2137   21.0173 H   0  0  0  0  0  0  0  0  0  0  0  0
    6.4457  -13.1843   21.3434 H   0  0  0  0  0  0  0  0  0  0  0  0
    3.7591  -15.5546   22.9409 H   0  0  0  0  0  0  0  0  0  0  0  0
    3.8726  -14.3503   23.7171 H   0  0  0  0  0  0  0  0  0  0  0  0
    6.1109  -16.3651   24.7527 H   0  0  0  0  0  0  0  0  0  0  0  0
    4.4769  -16.5070   24.6903 H   0  0  0  0  0  0  0  0  0  0  0  0
    4.0266  -17.8294   26.4521 H   0  0  0  0  0  0  0  0  0  0  0  0
    3.5344  -17.0463   29.0156 H   0  0  0  0  0  0  0  0  0  0  0  0
    5.4366  -13.8907   27.0419 H   0  0  0  0  0  0  0  0  0  0  0  0
    8.2707   -9.5955   18.3185 H   0  0  0  0  0  0  0  0  0  0  0  0
    9.0196   -9.5119   19.1518 H   0  0  0  0  0  0  0  0  0  0  0  0
    7.9955  -10.2023   16.1239 H   0  0  0  0  0  0  0  0  0  0  0  0
    8.2309  -11.9660   16.6167 H   0  0  0  0  0  0  0  0  0  0  0  0
  1  2  1  0
  2  3  2  0
  2  4  1  0
  4  5  1  0
  5  6  1  0
  6  7  1  0
  7  8  1  0
  8  9  1  0
  9 10  1  0
 10 11  2  0
 10 12  1  0
 12 13  1  0
 13 14  1  0
 14 15  1  0
 15 16  1  0
 16 17  2  0
 17 18  1  0
 18 19  2  0
  9 20  1  0
 20 21  1  0
 21 22  1  0
 22  7  1  0
 19 15  1  0
  1 23  1  0
  1 24  1  0
  1 25  1  0
  4 26  1  0
  5 27  1  0
  5 28  1  0
  6 29  1  0
  6 30  1  0
  7 31  1  0
  8 32  1  0
  8 33  1  0
 12 34  1  0
 12 35  1  0
 13 36  1  0
 13 37  1  0
 14 38  1  0
 14 39  1  0
 16 40  1  0
 17 41  1  0
 19 42  1  0
 20 43  1  0
 20 44  1  0
 21 45  1  0
 21 46  1  0
M  END
>  <Energy>  (477) 
2064.220089588232

>  <compound_id>  (477) 
69441

>  <target_id>  (477) 
1

>  <reference_id>  (477) 
35

>  <inspiration_ids>  (477) 
[97, 35]

>  <energy_score>  (477) 
2010.6904967846936

>  <distance_score>  (477) 
13.524275394772898

>  <path>  (477) 
/opt/xchem-fragalysis-2/maxwin/BulkDock/SCRATCH/511015/C69441-P35/C69441-P35.minimised.mol

>  <scratch_subdir>  (477) 
/opt/xchem-fragalysis-2/maxwin/BulkDock/SCRATCH/511015/C69441-P35

>  <fragmenstein_runtime>  (477) 
42.319977045059204

>  <fragmenstein_outcome>  (477) 
too moved

>  <fragmenstein_mode>  (477) 
expansion

>  <fragmenstein_error>  (477) 


$$$$
C69444-P97
     RDKit          3D

 48 49  0  0  0  0  0  0  0  0999 V2000
    5.1860  -14.7291   27.4153 C   0  0  0  0  0  0  0  0  0  0  0  0
    4.7032  -13.4115   26.8187 C   0  0  0  0  0  0  0  0  0  0  0  0
    3.9401  -12.4938   27.7815 C   0  0  0  0  0  0  0  0  0  0  0  0
    3.7855  -10.9553   27.2928 C   0  0  0  0  0  0  0  0  0  0  0  0
    2.6809  -10.4714   27.3923 O   0  0  0  0  0  0  0  0  0  0  0  0
    5.0717  -10.3360   26.8832 N   0  0  0  0  0  0  0  0  0  0  0  0
    5.2721  -10.4713   25.3502 C   0  0  0  0  0  0  0  0  0  0  0  0
    6.7242  -10.3884   24.7856 C   0  0  0  0  0  0  0  0  0  0  0  0
    7.3361   -8.9872   24.8849 C   0  0  0  0  0  0  0  0  0  0  0  0
    6.9646   -7.9760   23.7702 C   0  0  0  0  0  0  0  0  0  0  0  0
    7.3165   -8.4229   22.3558 C   0  0  0  0  0  0  0  0  0  0  0  0
    6.8277   -7.4749   21.3863 N   0  0  0  0  0  0  0  0  0  0  0  0
    5.4959   -7.0260   21.0985 C   0  0  0  0  0  0  0  0  0  0  0  0
    5.5268   -6.0900   19.9106 C   0  0  0  0  0  0  0  0  0  0  0  0
    4.4576   -7.2638   21.6412 O   0  0  0  0  0  0  0  0  0  0  0  0
    6.8881   -8.4928   26.2581 C   0  0  0  0  0  0  0  0  0  0  0  0
    5.4187   -8.8839   26.5738 C   0  0  0  0  0  0  0  0  0  0  0  0
    2.6857  -13.1770   28.2962 N   0  0  0  0  0  0  0  0  0  0  0  0
    2.6381  -14.0777   29.3524 C   0  0  0  0  0  0  0  0  0  0  0  0
    1.3360  -14.5135   29.4411 C   0  0  0  0  0  0  0  0  0  0  0  0
    0.5729  -13.8994   28.4907 N   0  0  0  0  0  0  0  0  0  0  0  0
    1.4022  -13.1274   27.8106 C   0  0  0  0  0  0  0  0  0  0  0  0
    4.3598  -15.4031   27.6516 H   0  0  0  0  0  0  0  0  0  0  0  0
    5.7701  -14.5580   28.3250 H   0  0  0  0  0  0  0  0  0  0  0  0
    5.8288  -15.2477   26.6960 H   0  0  0  0  0  0  0  0  0  0  0  0
    4.0812  -13.6170   25.9426 H   0  0  0  0  0  0  0  0  0  0  0  0
    5.6081  -12.9049   26.4732 H   0  0  0  0  0  0  0  0  0  0  0  0
    4.5418  -12.3929   28.6983 H   0  0  0  0  0  0  0  0  0  0  0  0
    4.9095  -11.4720   25.1131 H   0  0  0  0  0  0  0  0  0  0  0  0
    4.5890   -9.8613   24.7463 H   0  0  0  0  0  0  0  0  0  0  0  0
    7.3433  -11.0842   25.3678 H   0  0  0  0  0  0  0  0  0  0  0  0
    6.7428  -10.7536   23.7565 H   0  0  0  0  0  0  0  0  0  0  0  0
    8.4299   -9.0789   24.8737 H   0  0  0  0  0  0  0  0  0  0  0  0
    5.8883   -7.7737   23.8317 H   0  0  0  0  0  0  0  0  0  0  0  0
    7.4611   -7.0185   23.9758 H   0  0  0  0  0  0  0  0  0  0  0  0
    8.3986   -8.5183   22.2266 H   0  0  0  0  0  0  0  0  0  0  0  0
    6.8433   -9.3775   22.1129 H   0  0  0  0  0  0  0  0  0  0  0  0
    7.4760   -7.0042   20.7666 H   0  0  0  0  0  0  0  0  0  0  0  0
    4.5048   -5.8241   19.6245 H   0  0  0  0  0  0  0  0  0  0  0  0
    6.0647   -5.1788   20.1799 H   0  0  0  0  0  0  0  0  0  0  0  0
    6.0064   -6.5771   19.0572 H   0  0  0  0  0  0  0  0  0  0  0  0
    7.5311   -8.9409   27.0272 H   0  0  0  0  0  0  0  0  0  0  0  0
    7.0090   -7.4065   26.3409 H   0  0  0  0  0  0  0  0  0  0  0  0
    4.6680   -8.3607   25.9583 H   0  0  0  0  0  0  0  0  0  0  0  0
    5.2272   -8.4207   27.5550 H   0  0  0  0  0  0  0  0  0  0  0  0
    3.5179  -14.3209   29.9310 H   0  0  0  0  0  0  0  0  0  0  0  0
    0.9120  -15.2196   30.1426 H   0  0  0  0  0  0  0  0  0  0  0  0
    1.1264  -12.5188   26.9588 H   0  0  0  0  0  0  0  0  0  0  0  0
  1  2  1  0
  2  3  1  0
  3  4  1  0
  4  5  2  0
  4  6  1  0
  6  7  1  0
  7  8  1  0
  8  9  1  0
  9 10  1  0
 10 11  1  0
 11 12  1  0
 12 13  1  0
 13 14  1  0
 13 15  2  0
  9 16  1  0
 16 17  1  0
  3 18  1  0
 18 19  1  0
 19 20  2  0
 20 21  1  0
 21 22  2  0
 17  6  1  0
 22 18  1  0
  1 23  1  0
  1 24  1  0
  1 25  1  0
  2 26  1  0
  2 27  1  0
  3 28  1  0
  7 29  1  0
  7 30  1  0
  8 31  1  0
  8 32  1  0
  9 33  1  0
 10 34  1  0
 10 35  1  0
 11 36  1  0
 11 37  1  0
 12 38  1  0
 14 39  1  0
 14 40  1  0
 14 41  1  0
 16 42  1  0
 16 43  1  0
 17 44  1  0
 17 45  1  0
 19 46  1  0
 20 47  1  0
 22 48  1  0
M  END
>  <Energy>  (478) 
85.569609773739188

>  <compound_id>  (478) 
69444

>  <target_id>  (478) 
1

>  <reference_id>  (478) 
97

>  <inspiration_ids>  (478) 
[97, 35]

>  <energy_score>  (478) 
33.84513751325005

>  <distance_score>  (478) 
16.132675503646837

>  <path>  (478) 
/opt/xchem-fragalysis-2/maxwin/BulkDock/SCRATCH/511015/C69444-P97/C69444-P97.minimised.mol

>  <scratch_subdir>  (478) 
/opt/xchem-fragalysis-2/maxwin/BulkDock/SCRATCH/511015/C69444-P97

>  <fragmenstein_runtime>  (478) 
19.296642065048218

>  <fragmenstein_outcome>  (478) 
too moved

>  <fragmenstein_mode>  (478) 
expansion

>  <fragmenstein_error>  (478) 


$$$$
C69444-P35
     RDKit          3D

 48 49  0  0  0  0  0  0  0  0999 V2000
    2.3603  -10.9964   28.4257 C   0  0  0  0  0  0  0  0  0  0  0  0
    3.2634  -12.0446   29.0581 C   0  0  0  0  0  0  0  0  0  0  0  0
    3.6122  -13.1833   28.0644 C   0  0  0  0  0  0  0  0  0  0  0  0
    5.1975  -13.1855   27.8573 C   0  0  0  0  0  0  0  0  0  0  0  0
    5.8163  -13.8803   28.6298 O   0  0  0  0  0  0  0  0  0  0  0  0
    5.6717  -12.3659   26.7057 N   0  0  0  0  0  0  0  0  0  0  0  0
    5.9986  -10.9389   27.1645 C   0  0  0  0  0  0  0  0  0  0  0  0
    6.0164   -9.7542   26.1275 C   0  0  0  0  0  0  0  0  0  0  0  0
    6.6678  -10.0426   24.7779 C   0  0  0  0  0  0  0  0  0  0  0  0
    7.4349   -8.8747   24.0635 C   0  0  0  0  0  0  0  0  0  0  0  0
    8.3963   -8.0322   24.9016 C   0  0  0  0  0  0  0  0  0  0  0  0
    9.5079   -8.7713   25.4362 N   0  0  0  0  0  0  0  0  0  0  0  0
    9.7182   -9.3457   26.7320 C   0  0  0  0  0  0  0  0  0  0  0  0
   11.1124   -9.9357   26.7938 C   0  0  0  0  0  0  0  0  0  0  0  0
    8.9913   -9.4266   27.6775 O   0  0  0  0  0  0  0  0  0  0  0  0
    7.4480  -11.3348   24.8846 C   0  0  0  0  0  0  0  0  0  0  0  0
    7.0571  -12.2432   26.0839 C   0  0  0  0  0  0  0  0  0  0  0  0
    2.9502  -14.4695   28.5638 N   0  0  0  0  0  0  0  0  0  0  0  0
    3.4535  -15.7459   28.6784 C   0  0  0  0  0  0  0  0  0  0  0  0
    2.4269  -16.5386   29.1533 C   0  0  0  0  0  0  0  0  0  0  0  0
    1.2903  -15.8022   29.3261 N   0  0  0  0  0  0  0  0  0  0  0  0
    1.6202  -14.5824   28.9518 C   0  0  0  0  0  0  0  0  0  0  0  0
    2.8411  -10.5388   27.5568 H   0  0  0  0  0  0  0  0  0  0  0  0
    1.4116  -11.4365   28.1039 H   0  0  0  0  0  0  0  0  0  0  0  0
    2.1381  -10.2030   29.1460 H   0  0  0  0  0  0  0  0  0  0  0  0
    4.1670  -11.5519   29.4327 H   0  0  0  0  0  0  0  0  0  0  0  0
    2.7691  -12.4235   29.9607 H   0  0  0  0  0  0  0  0  0  0  0  0
    3.1480  -13.0321   27.0814 H   0  0  0  0  0  0  0  0  0  0  0  0
    6.8419  -10.8993   27.8747 H   0  0  0  0  0  0  0  0  0  0  0  0
    5.1705  -10.6649   27.8243 H   0  0  0  0  0  0  0  0  0  0  0  0
    6.4710   -8.8955   26.6287 H   0  0  0  0  0  0  0  0  0  0  0  0
    4.9763   -9.4562   25.9412 H   0  0  0  0  0  0  0  0  0  0  0  0
    5.8327  -10.2747   24.0987 H   0  0  0  0  0  0  0  0  0  0  0  0
    7.9698   -9.2882   23.1989 H   0  0  0  0  0  0  0  0  0  0  0  0
    6.6770   -8.1910   23.6590 H   0  0  0  0  0  0  0  0  0  0  0  0
    7.8748   -7.5452   25.7302 H   0  0  0  0  0  0  0  0  0  0  0  0
    8.8192   -7.2399   24.2743 H   0  0  0  0  0  0  0  0  0  0  0  0
   10.3763   -8.8096   24.9126 H   0  0  0  0  0  0  0  0  0  0  0  0
   11.2678  -10.4084   27.7682 H   0  0  0  0  0  0  0  0  0  0  0  0
   11.2323  -10.6952   26.0160 H   0  0  0  0  0  0  0  0  0  0  0  0
   11.8579   -9.1457   26.6664 H   0  0  0  0  0  0  0  0  0  0  0  0
    7.3381  -11.8938   23.9501 H   0  0  0  0  0  0  0  0  0  0  0  0
    8.5246  -11.1510   24.9533 H   0  0  0  0  0  0  0  0  0  0  0  0
    7.8440  -12.2386   26.8601 H   0  0  0  0  0  0  0  0  0  0  0  0
    7.1986  -13.2660   25.6983 H   0  0  0  0  0  0  0  0  0  0  0  0
    4.4788  -15.9839   28.4316 H   0  0  0  0  0  0  0  0  0  0  0  0
    2.4585  -17.5966   29.3783 H   0  0  0  0  0  0  0  0  0  0  0  0
    0.9437  -13.7387   28.9356 H   0  0  0  0  0  0  0  0  0  0  0  0
  1  2  1  0
  2  3  1  0
  3  4  1  0
  4  5  2  0
  4  6  1  0
  6  7  1  0
  7  8  1  0
  8  9  1  0
  9 10  1  0
 10 11  1  0
 11 12  1  0
 12 13  1  0
 13 14  1  0
 13 15  2  0
  9 16  1  0
 16 17  1  0
  3 18  1  0
 18 19  1  0
 19 20  2  0
 20 21  1  0
 21 22  2  0
 17  6  1  0
 22 18  1  0
  1 23  1  0
  1 24  1  0
  1 25  1  0
  2 26  1  0
  2 27  1  0
  3 28  1  0
  7 29  1  0
  7 30  1  0
  8 31  1  0
  8 32  1  0
  9 33  1  0
 10 34  1  0
 10 35  1  0
 11 36  1  0
 11 37  1  0
 12 38  1  0
 14 39  1  0
 14 40  1  0
 14 41  1  0
 16 42  1  0
 16 43  1  0
 17 44  1  0
 17 45  1  0
 19 46  1  0
 20 47  1  0
 22 48  1  0
M  END
>  <Energy>  (479) 
97.509446200047506

>  <compound_id>  (479) 
69444

>  <target_id>  (479) 
1

>  <reference_id>  (479) 
35

>  <inspiration_ids>  (479) 
[97, 35]

>  <energy_score>  (479) 
45.78497393955922

>  <distance_score>  (479) 
16.608296769386556

>  <path>  (479) 
/opt/xchem-fragalysis-2/maxwin/BulkDock/SCRATCH/511015/C69444-P35/C69444-P35.minimised.mol

>  <scratch_subdir>  (479) 
/opt/xchem-fragalysis-2/maxwin/BulkDock/SCRATCH/511015/C69444-P35

>  <fragmenstein_runtime>  (479) 
25.24957513809204

>  <fragmenstein_outcome>  (479) 
too moved

>  <fragmenstein_mode>  (479) 
expansion

>  <fragmenstein_error>  (479) 


$$$$
C69451-P97
     RDKit          3D

 37 38  0  0  0  0  0  0  0  0999 V2000
   -0.6708  -15.6919   32.5353 C   0  0  0  0  0  0  0  0  0  0  0  0
   -1.8151  -15.2118   31.6327 C   0  0  0  0  0  0  0  0  0  0  0  0
   -1.2077  -14.4385   30.5154 N   0  0  0  0  0  0  0  0  0  0  0  0
   -0.6032  -13.0970   30.4906 C   0  0  0  0  0  0  0  0  0  0  0  0
   -0.5217  -12.2612   31.3485 O   0  0  0  0  0  0  0  0  0  0  0  0
    0.0667  -12.7847   29.1125 C   0  0  0  0  0  0  0  0  0  0  0  0
    0.7985  -11.4932   29.0283 N   0  0  0  0  0  0  0  0  0  0  0  0
    0.2856  -10.2790   28.6480 C   0  0  0  0  0  0  0  0  0  0  0  0
    1.3224   -9.3812   28.7498 C   0  0  0  0  0  0  0  0  0  0  0  0
    2.4959  -10.0299   29.0190 N   0  0  0  0  0  0  0  0  0  0  0  0
    2.1263  -11.2695   29.2969 C   0  0  0  0  0  0  0  0  0  0  0  0
   -2.8401  -16.3232   31.2730 C   0  0  0  0  0  0  0  0  0  0  0  0
   -3.8854  -16.0318   30.3796 C   0  0  0  0  0  0  0  0  0  0  0  0
   -4.8922  -16.9657   30.0990 C   0  0  0  0  0  0  0  0  0  0  0  0
   -4.8870  -18.2157   30.7130 C   0  0  0  0  0  0  0  0  0  0  0  0
   -3.8961  -18.5447   31.6285 C   0  0  0  0  0  0  0  0  0  0  0  0
   -3.8761  -20.1641   32.3962 S   0  0  0  0  0  0  0  0  0  0  0  0
   -5.4380  -20.4752   32.9148 N   0  0  0  0  0  0  0  0  0  0  0  0
   -3.1207  -20.0681   33.6250 O   0  0  0  0  0  0  0  0  0  0  0  0
   -3.5105  -21.1165   31.3718 O   0  0  0  0  0  0  0  0  0  0  0  0
   -2.8811  -17.6019   31.9080 C   0  0  0  0  0  0  0  0  0  0  0  0
    0.0070  -14.8674   32.7845 H   0  0  0  0  0  0  0  0  0  0  0  0
   -1.0456  -16.0947   33.4820 H   0  0  0  0  0  0  0  0  0  0  0  0
   -0.0743  -16.4662   32.0395 H   0  0  0  0  0  0  0  0  0  0  0  0
   -2.3736  -14.4679   32.2169 H   0  0  0  0  0  0  0  0  0  0  0  0
   -1.0201  -14.9037   29.6346 H   0  0  0  0  0  0  0  0  0  0  0  0
    0.7956  -13.5673   28.8767 H   0  0  0  0  0  0  0  0  0  0  0  0
   -0.7050  -12.7565   28.3359 H   0  0  0  0  0  0  0  0  0  0  0  0
   -0.7590  -10.1609   28.4142 H   0  0  0  0  0  0  0  0  0  0  0  0
    1.2730   -8.3090   28.6208 H   0  0  0  0  0  0  0  0  0  0  0  0
    2.7792  -12.0539   29.6605 H   0  0  0  0  0  0  0  0  0  0  0  0
   -3.9335  -15.0534   29.9022 H   0  0  0  0  0  0  0  0  0  0  0  0
   -5.6834  -16.7110   29.3977 H   0  0  0  0  0  0  0  0  0  0  0  0
   -5.6613  -18.9219   30.4606 H   0  0  0  0  0  0  0  0  0  0  0  0
   -5.5284  -20.3258   33.9176 H   0  0  0  0  0  0  0  0  0  0  0  0
   -6.1939  -20.0191   32.3798 H   0  0  0  0  0  0  0  0  0  0  0  0
   -2.1168  -17.8818   32.6313 H   0  0  0  0  0  0  0  0  0  0  0  0
  1  2  1  0
  2  3  1  0
  3  4  1  0
  4  5  2  0
  4  6  1  0
  6  7  1  0
  7  8  1  0
  8  9  2  0
  9 10  1  0
 10 11  2  0
  2 12  1  0
 12 13  2  0
 13 14  1  0
 14 15  2  0
 15 16  1  0
 16 17  1  0
 17 18  1  0
 17 19  2  0
 17 20  2  0
 16 21  2  0
 11  7  1  0
 21 12  1  0
  1 22  1  0
  1 23  1  0
  1 24  1  0
  2 25  1  0
  3 26  1  0
  6 27  1  0
  6 28  1  0
  8 29  1  0
  9 30  1  0
 11 31  1  0
 13 32  1  0
 14 33  1  0
 15 34  1  0
 18 35  1  0
 18 36  1  0
 21 37  1  0
M  END
>  <Energy>  (480) 
-35.959360590500836

>  <compound_id>  (480) 
69451

>  <target_id>  (480) 
1

>  <reference_id>  (480) 
97

>  <inspiration_ids>  (480) 
[97, 35]

>  <energy_score>  (480) 
-25.724317576908618

>  <distance_score>  (480) 
14.485256411210049

>  <path>  (480) 
/opt/xchem-fragalysis-2/maxwin/BulkDock/SCRATCH/511015/C69451-P97/C69451-P97.minimised.mol

>  <scratch_subdir>  (480) 
/opt/xchem-fragalysis-2/maxwin/BulkDock/SCRATCH/511015/C69451-P97

>  <fragmenstein_runtime>  (480) 
19.083310842514038

>  <fragmenstein_outcome>  (480) 
too moved

>  <fragmenstein_mode>  (480) 
expansion

>  <fragmenstein_error>  (480) 


$$$$
C69451-P35
     RDKit          3D

 37 38  0  0  0  0  0  0  0  0999 V2000
   -3.4293  -21.0561   20.3125 C   0  0  0  0  0  0  0  0  0  0  0  0
   -3.0113  -19.9753   21.3142 C   0  0  0  0  0  0  0  0  0  0  0  0
   -2.5939  -18.7525   20.5293 N   0  0  0  0  0  0  0  0  0  0  0  0
   -1.3233  -18.4448   19.8018 C   0  0  0  0  0  0  0  0  0  0  0  0
   -0.2954  -19.0633   19.7321 O   0  0  0  0  0  0  0  0  0  0  0  0
   -1.4497  -17.1073   18.9497 C   0  0  0  0  0  0  0  0  0  0  0  0
   -0.2894  -16.5069   18.1877 N   0  0  0  0  0  0  0  0  0  0  0  0
    1.0433  -16.8339   18.1482 C   0  0  0  0  0  0  0  0  0  0  0  0
    1.6804  -15.8468   17.4170 C   0  0  0  0  0  0  0  0  0  0  0  0
    0.7712  -14.9374   16.9497 N   0  0  0  0  0  0  0  0  0  0  0  0
   -0.3962  -15.3775   17.3807 C   0  0  0  0  0  0  0  0  0  0  0  0
   -4.1020  -19.8804   22.4468 C   0  0  0  0  0  0  0  0  0  0  0  0
   -5.0542  -18.8501   22.4955 C   0  0  0  0  0  0  0  0  0  0  0  0
   -6.0256  -18.7850   23.5133 C   0  0  0  0  0  0  0  0  0  0  0  0
   -6.1100  -19.7718   24.4917 C   0  0  0  0  0  0  0  0  0  0  0  0
   -5.2279  -20.8484   24.4542 C   0  0  0  0  0  0  0  0  0  0  0  0
   -5.5386  -22.2114   25.5657 S   0  0  0  0  0  0  0  0  0  0  0  0
   -4.0371  -22.6652   26.1475 N   0  0  0  0  0  0  0  0  0  0  0  0
   -6.2497  -21.7409   26.7354 O   0  0  0  0  0  0  0  0  0  0  0  0
   -6.0043  -23.3004   24.7478 O   0  0  0  0  0  0  0  0  0  0  0  0
   -4.2213  -20.8984   23.4538 C   0  0  0  0  0  0  0  0  0  0  0  0
   -2.6477  -21.2183   19.5620 H   0  0  0  0  0  0  0  0  0  0  0  0
   -3.6209  -22.0148   20.8059 H   0  0  0  0  0  0  0  0  0  0  0  0
   -4.3418  -20.7640   19.7801 H   0  0  0  0  0  0  0  0  0  0  0  0
   -2.0861  -20.3060   21.8036 H   0  0  0  0  0  0  0  0  0  0  0  0
   -3.2862  -18.0503   20.3011 H   0  0  0  0  0  0  0  0  0  0  0  0
   -1.7866  -16.3038   19.6111 H   0  0  0  0  0  0  0  0  0  0  0  0
   -2.2108  -17.2863   18.1807 H   0  0  0  0  0  0  0  0  0  0  0  0
    1.4297  -17.7128   18.6415 H   0  0  0  0  0  0  0  0  0  0  0  0
    2.7391  -15.7543   17.2091 H   0  0  0  0  0  0  0  0  0  0  0  0
   -1.3511  -14.9062   17.1868 H   0  0  0  0  0  0  0  0  0  0  0  0
   -5.0526  -18.0646   21.7429 H   0  0  0  0  0  0  0  0  0  0  0  0
   -6.7362  -17.9597   23.5211 H   0  0  0  0  0  0  0  0  0  0  0  0
   -6.8966  -19.7171   25.2413 H   0  0  0  0  0  0  0  0  0  0  0  0
   -3.8559  -23.6329   25.8769 H   0  0  0  0  0  0  0  0  0  0  0  0
   -3.9878  -22.5013   27.1532 H   0  0  0  0  0  0  0  0  0  0  0  0
   -3.5522  -21.7581   23.4252 H   0  0  0  0  0  0  0  0  0  0  0  0
  1  2  1  0
  2  3  1  0
  3  4  1  0
  4  5  2  0
  4  6  1  0
  6  7  1  0
  7  8  1  0
  8  9  2  0
  9 10  1  0
 10 11  2  0
  2 12  1  0
 12 13  2  0
 13 14  1  0
 14 15  2  0
 15 16  1  0
 16 17  1  0
 17 18  1  0
 17 19  2  0
 17 20  2  0
 16 21  2  0
 11  7  1  0
 21 12  1  0
  1 22  1  0
  1 23  1  0
  1 24  1  0
  2 25  1  0
  3 26  1  0
  6 27  1  0
  6 28  1  0
  8 29  1  0
  9 30  1  0
 11 31  1  0
 13 32  1  0
 14 33  1  0
 15 34  1  0
 18 35  1  0
 18 36  1  0
 21 37  1  0
M  END
>  <Energy>  (481) 
-30.576619694449445

>  <compound_id>  (481) 
69451

>  <target_id>  (481) 
1

>  <reference_id>  (481) 
35

>  <inspiration_ids>  (481) 
[97, 35]

>  <energy_score>  (481) 
-20.34157668085436

>  <distance_score>  (481) 
14.994362798770602

>  <path>  (481) 
/opt/xchem-fragalysis-2/maxwin/BulkDock/SCRATCH/511015/C69451-P35/C69451-P35.minimised.mol

>  <scratch_subdir>  (481) 
/opt/xchem-fragalysis-2/maxwin/BulkDock/SCRATCH/511015/C69451-P35

>  <fragmenstein_runtime>  (481) 
40.98107123374939

>  <fragmenstein_outcome>  (481) 
too moved

>  <fragmenstein_mode>  (481) 
expansion

>  <fragmenstein_error>  (481) 


$$$$
C69454-P97
     RDKit          3D

 48 51  0  0  0  0  0  0  0  0999 V2000
    3.6729  -13.2040   20.8521 C   0  0  0  0  0  0  0  0  0  0  0  0
    2.6892  -14.3716   19.5739 C   0  0  0  0  0  0  0  0  0  0  0  0
    3.9247  -12.8972   18.5551 N   0  0  0  0  0  0  0  0  0  0  0  0
    5.7085  -11.9390   19.0256 C   0  0  0  0  0  0  0  0  0  0  0  0
    6.0632  -12.2315   20.1475 O   0  0  0  0  0  0  0  0  0  0  0  0
    7.2518  -10.5113   18.1001 C   0  0  0  0  0  0  0  0  0  0  0  0
    8.8647   -9.9240   16.7339 C   0  0  0  0  0  0  0  0  0  0  0  0
   10.2304  -10.4247   16.6248 C   0  0  0  0  0  0  0  0  0  0  0  0
   11.6388   -9.3551   16.2155 C   0  0  0  0  0  0  0  0  0  0  0  0
   12.1812   -7.5152   16.0886 C   0  0  0  0  0  0  0  0  0  0  0  0
   11.0084   -6.8321   15.8587 C   0  0  0  0  0  0  0  0  0  0  0  0
    9.6533   -8.3071   15.8090 C   0  0  0  0  0  0  0  0  0  0  0  0
   11.1239   -5.3294   15.8386 O   0  0  0  0  0  0  0  0  0  0  0  0
   12.1316   -4.4038   16.2131 C   0  0  0  0  0  0  0  0  0  0  0  0
   13.2748   -5.1859   16.6422 C   0  0  0  0  0  0  0  0  0  0  0  0
   12.6749   -6.4459   16.9719 O   0  0  0  0  0  0  0  0  0  0  0  0
    0.9806  -15.7859   19.8151 C   0  0  0  0  0  0  0  0  0  0  0  0
   -0.8900  -15.6457   19.5292 C   0  0  0  0  0  0  0  0  0  0  0  0
   -2.2581  -16.3421   19.6523 C   0  0  0  0  0  0  0  0  0  0  0  0
   -2.2440  -17.5575   20.2002 C   0  0  0  0  0  0  0  0  0  0  0  0
   -3.4014  -18.2935   20.6649 N   0  0  0  0  0  0  0  0  0  0  0  0
   -3.5515  -19.6512   20.8767 C   0  0  0  0  0  0  0  0  0  0  0  0
   -4.7001  -19.8330   21.6118 C   0  0  0  0  0  0  0  0  0  0  0  0
   -5.3383  -18.6399   21.7846 N   0  0  0  0  0  0  0  0  0  0  0  0
   -4.5971  -17.7623   21.1307 C   0  0  0  0  0  0  0  0  0  0  0  0
   -0.9521  -17.6688   20.7526 C   0  0  0  0  0  0  0  0  0  0  0  0
    0.3908  -16.7432   20.6799 C   0  0  0  0  0  0  0  0  0  0  0  0
    3.2694  -12.9904   21.8266 H   0  0  0  0  0  0  0  0  0  0  0  0
    3.9950  -12.2933   20.4719 H   0  0  0  0  0  0  0  0  0  0  0  0
    4.7331  -13.4445   20.9190 H   0  0  0  0  0  0  0  0  0  0  0  0
    2.3483  -14.3781   20.6003 H   0  0  0  0  0  0  0  0  0  0  0  0
    3.6177  -12.5595   17.6434 H   0  0  0  0  0  0  0  0  0  0  0  0
    8.0175  -10.5207   18.9172 H   0  0  0  0  0  0  0  0  0  0  0  0
    6.8000   -9.5597   18.4201 H   0  0  0  0  0  0  0  0  0  0  0  0
   10.4989  -11.4665   16.7861 H   0  0  0  0  0  0  0  0  0  0  0  0
   12.2100  -10.0561   15.5761 H   0  0  0  0  0  0  0  0  0  0  0  0
    9.0160   -7.5409   15.2925 H   0  0  0  0  0  0  0  0  0  0  0  0
   12.3514   -3.7089   15.3967 H   0  0  0  0  0  0  0  0  0  0  0  0
   11.7610   -3.7897   17.0243 H   0  0  0  0  0  0  0  0  0  0  0  0
   13.6981   -4.7526   17.5573 H   0  0  0  0  0  0  0  0  0  0  0  0
   14.1149   -5.2764   15.9608 H   0  0  0  0  0  0  0  0  0  0  0  0
   -1.3217  -14.8447   18.8801 H   0  0  0  0  0  0  0  0  0  0  0  0
   -3.1510  -15.8355   19.3037 H   0  0  0  0  0  0  0  0  0  0  0  0
   -2.8795  -20.3608   20.4348 H   0  0  0  0  0  0  0  0  0  0  0  0
   -5.1212  -20.7618   21.9744 H   0  0  0  0  0  0  0  0  0  0  0  0
   -4.8184  -16.7105   21.0263 H   0  0  0  0  0  0  0  0  0  0  0  0
   -0.8894  -18.3124   21.6158 H   0  0  0  0  0  0  0  0  0  0  0  0
    0.1539  -16.1901   21.5990 H   0  0  0  0  0  0  0  0  0  0  0  0
  1  2  1  0
  2  3  1  0
  3  4  1  0
  4  5  2  0
  4  6  1  0
  6  7  1  0
  7  8  2  0
  8  9  1  0
  9 10  2  0
 10 11  1  0
 11 12  2  0
 11 13  1  0
 13 14  1  0
 14 15  1  0
 15 16  1  0
  2 17  1  0
 17 18  2  0
 18 19  1  0
 19 20  2  0
 20 21  1  0
 21 22  1  0
 22 23  2  0
 23 24  1  0
 24 25  2  0
 20 26  1  0
 26 27  2  0
 12  7  1  0
 27 17  1  0
 16 10  1  0
 25 21  1  0
  1 28  1  0
  1 29  1  0
  1 30  1  0
  2 31  1  0
  3 32  1  0
  6 33  1  0
  6 34  1  0
  8 35  1  0
  9 36  1  0
 12 37  1  0
 14 38  1  0
 14 39  1  0
 15 40  1  0
 15 41  1  0
 18 42  1  0
 19 43  1  0
 22 44  1  0
 23 45  1  0
 25 46  1  0
 26 47  1  0
 27 48  1  0
M  END
>  <Energy>  (482) 
2162.939590438456

>  <compound_id>  (482) 
69454

>  <target_id>  (482) 
1

>  <reference_id>  (482) 
97

>  <inspiration_ids>  (482) 
[97, 35]

>  <energy_score>  (482) 
2034.0826254828298

>  <distance_score>  (482) 
13.057100651325706

>  <path>  (482) 
/opt/xchem-fragalysis-2/maxwin/BulkDock/SCRATCH/511015/C69454-P97/C69454-P97.minimised.mol

>  <scratch_subdir>  (482) 
/opt/xchem-fragalysis-2/maxwin/BulkDock/SCRATCH/511015/C69454-P97

>  <fragmenstein_runtime>  (482) 
14.676187753677368

>  <fragmenstein_outcome>  (482) 
too moved

>  <fragmenstein_mode>  (482) 
expansion

>  <fragmenstein_error>  (482) 


$$$$
C69454-P35
     RDKit          3D

 48 51  0  0  0  0  0  0  0  0999 V2000
    9.1126  -12.2909   20.2679 C   0  0  0  0  0  0  0  0  0  0  0  0
    7.6110  -11.3940   19.5603 C   0  0  0  0  0  0  0  0  0  0  0  0
    8.6734  -10.5278   18.0763 N   0  0  0  0  0  0  0  0  0  0  0  0
   10.4332  -10.7099   17.5738 C   0  0  0  0  0  0  0  0  0  0  0  0
   11.2127  -11.5091   18.0755 O   0  0  0  0  0  0  0  0  0  0  0  0
   11.4368   -9.4992   16.2180 C   0  0  0  0  0  0  0  0  0  0  0  0
   12.1175   -7.5147   16.1792 C   0  0  0  0  0  0  0  0  0  0  0  0
   11.3850   -6.3308   16.0590 C   0  0  0  0  0  0  0  0  0  0  0  0
   11.4943   -4.6898   16.2663 C   0  0  0  0  0  0  0  0  0  0  0  0
   12.6086   -4.0829   16.6194 C   0  0  0  0  0  0  0  0  0  0  0  0
   13.4914   -4.9848   16.2399 C   0  0  0  0  0  0  0  0  0  0  0  0
   13.0373   -6.5458   15.8718 C   0  0  0  0  0  0  0  0  0  0  0  0
   14.8260   -4.6552   16.0644 O   0  0  0  0  0  0  0  0  0  0  0  0
   15.0471   -3.2315   16.1194 C   0  0  0  0  0  0  0  0  0  0  0  0
   14.1718   -2.5636   17.1747 C   0  0  0  0  0  0  0  0  0  0  0  0
   12.7862   -2.7882   16.8765 O   0  0  0  0  0  0  0  0  0  0  0  0
    5.8146  -12.3808   19.6263 C   0  0  0  0  0  0  0  0  0  0  0  0
    4.8341  -12.5142   20.6345 C   0  0  0  0  0  0  0  0  0  0  0  0
    3.3522  -13.5496   20.9636 C   0  0  0  0  0  0  0  0  0  0  0  0
    2.3539  -14.7985   20.0801 C   0  0  0  0  0  0  0  0  0  0  0  0
    0.9352  -16.1130   20.2474 N   0  0  0  0  0  0  0  0  0  0  0  0
   -0.2030  -16.4213   21.0428 C   0  0  0  0  0  0  0  0  0  0  0  0
   -1.2780  -16.8565   20.2721 C   0  0  0  0  0  0  0  0  0  0  0  0
   -0.8458  -17.9442   19.7879 N   0  0  0  0  0  0  0  0  0  0  0  0
    0.3965  -17.5278   19.6478 C   0  0  0  0  0  0  0  0  0  0  0  0
    3.0636  -14.4803   18.8019 C   0  0  0  0  0  0  0  0  0  0  0  0
    4.5923  -13.4853   18.9731 C   0  0  0  0  0  0  0  0  0  0  0  0
    9.4022  -13.2944   19.9327 H   0  0  0  0  0  0  0  0  0  0  0  0
    9.0088  -12.5553   21.3282 H   0  0  0  0  0  0  0  0  0  0  0  0
   10.0107  -11.7146   20.0406 H   0  0  0  0  0  0  0  0  0  0  0  0
    7.2673  -10.4350   19.8188 H   0  0  0  0  0  0  0  0  0  0  0  0
    8.2270   -9.8773   17.4716 H   0  0  0  0  0  0  0  0  0  0  0  0
   10.6267   -9.5796   15.4653 H   0  0  0  0  0  0  0  0  0  0  0  0
   12.2533  -10.1108   15.8136 H   0  0  0  0  0  0  0  0  0  0  0  0
   10.6891   -6.5634   15.2802 H   0  0  0  0  0  0  0  0  0  0  0  0
   10.7144   -4.0528   15.8582 H   0  0  0  0  0  0  0  0  0  0  0  0
   13.8442   -6.9836   15.2289 H   0  0  0  0  0  0  0  0  0  0  0  0
   16.1053   -3.0704   16.3477 H   0  0  0  0  0  0  0  0  0  0  0  0
   14.8465   -2.8127   15.1265 H   0  0  0  0  0  0  0  0  0  0  0  0
   14.3431   -1.4826   17.1835 H   0  0  0  0  0  0  0  0  0  0  0  0
   14.3852   -2.9515   18.1792 H   0  0  0  0  0  0  0  0  0  0  0  0
    4.8356  -11.6603   21.3107 H   0  0  0  0  0  0  0  0  0  0  0  0
    3.2256  -13.3355   22.0228 H   0  0  0  0  0  0  0  0  0  0  0  0
   -0.3020  -15.8108   21.8696 H   0  0  0  0  0  0  0  0  0  0  0  0
   -2.3329  -16.6082   20.2452 H   0  0  0  0  0  0  0  0  0  0  0  0
    0.9601  -17.9388   18.7864 H   0  0  0  0  0  0  0  0  0  0  0  0
    2.9818  -15.1039   17.9242 H   0  0  0  0  0  0  0  0  0  0  0  0
    5.0950  -14.3335   18.4556 H   0  0  0  0  0  0  0  0  0  0  0  0
  1  2  1  0
  2  3  1  0
  3  4  1  0
  4  5  2  0
  4  6  1  0
  6  7  1  0
  7  8  2  0
  8  9  1  0
  9 10  2  0
 10 11  1  0
 11 12  2  0
 11 13  1  0
 13 14  1  0
 14 15  1  0
 15 16  1  0
  2 17  1  0
 17 18  2  0
 18 19  1  0
 19 20  2  0
 20 21  1  0
 21 22  1  0
 22 23  2  0
 23 24  1  0
 24 25  2  0
 20 26  1  0
 26 27  2  0
 12  7  1  0
 27 17  1  0
 16 10  1  0
 25 21  1  0
  1 28  1  0
  1 29  1  0
  1 30  1  0
  2 31  1  0
  3 32  1  0
  6 33  1  0
  6 34  1  0
  8 35  1  0
  9 36  1  0
 12 37  1  0
 14 38  1  0
 14 39  1  0
 15 40  1  0
 15 41  1  0
 18 42  1  0
 19 43  1  0
 22 44  1  0
 23 45  1  0
 25 46  1  0
 26 47  1  0
 27 48  1  0
M  END
>  <Energy>  (483) 
1302.9246564771215

>  <compound_id>  (483) 
69454

>  <target_id>  (483) 
1

>  <reference_id>  (483) 
35

>  <inspiration_ids>  (483) 
[97, 35]

>  <energy_score>  (483) 
1174.0676915214913

>  <distance_score>  (483) 
12.612570220402917

>  <path>  (483) 
/opt/xchem-fragalysis-2/maxwin/BulkDock/SCRATCH/511015/C69454-P35/C69454-P35.minimised.mol

>  <scratch_subdir>  (483) 
/opt/xchem-fragalysis-2/maxwin/BulkDock/SCRATCH/511015/C69454-P35

>  <fragmenstein_runtime>  (483) 
40.18233895301819

>  <fragmenstein_outcome>  (483) 
too moved

>  <fragmenstein_mode>  (483) 
expansion

>  <fragmenstein_error>  (483) 


$$$$
C69517-P28
     RDKit          3D

 50 51  0  0  0  0  0  0  0  0999 V2000
   -2.6230   -6.6325   20.1040 C   0  0  0  0  0  0  0  0  0  0  0  0
   -3.3928   -7.6076   21.1197 C   0  0  0  0  0  0  0  0  0  0  0  0
   -3.0711   -9.0642   19.8229 C   0  0  0  0  0  0  0  0  0  0  0  0
   -3.8755  -10.8485   19.5054 C   0  0  0  0  0  0  0  0  0  0  0  0
   -4.5092  -12.0254   18.3446 N   0  0  0  0  0  0  0  0  0  0  0  0
   -6.2093  -12.5927   17.9941 C   0  0  0  0  0  0  0  0  0  0  0  0
   -7.1783  -12.1002   18.5288 O   0  0  0  0  0  0  0  0  0  0  0  0
   -6.8394  -14.0407   16.6039 C   0  0  0  0  0  0  0  0  0  0  0  0
   -7.7595  -14.5178   14.8334 C   0  0  0  0  0  0  0  0  0  0  0  0
   -7.6556  -15.9069   14.4071 C   0  0  0  0  0  0  0  0  0  0  0  0
   -7.7200  -16.2759   15.7465 O   0  0  0  0  0  0  0  0  0  0  0  0
   -7.0120  -15.5739   16.7060 C   0  0  0  0  0  0  0  0  0  0  0  0
   -3.1145   -6.3586   22.4176 N   0  0  0  0  0  0  0  0  0  0  0  0
   -4.0808   -5.0270   22.9162 C   0  0  0  0  0  0  0  0  0  0  0  0
   -5.2006   -4.7267   22.5359 O   0  0  0  0  0  0  0  0  0  0  0  0
   -3.3476   -3.6913   24.1075 C   0  0  0  0  0  0  0  0  0  0  0  0
   -3.5492   -2.2919   25.2533 N   0  0  0  0  0  0  0  0  0  0  0  0
   -4.3523   -2.6177   26.2620 N   0  0  0  0  0  0  0  0  0  0  0  0
   -3.7464   -2.1687   27.3685 N   0  0  0  0  0  0  0  0  0  0  0  0
   -2.5016   -1.7209   27.1456 N   0  0  0  0  0  0  0  0  0  0  0  0
   -2.6718   -1.1162   25.9865 C   0  0  0  0  0  0  0  0  0  0  0  0
   -2.7478    0.5768   26.2511 C   0  0  0  0  0  0  0  0  0  0  0  0
   -2.0893    0.8275   27.6514 C   0  0  0  0  0  0  0  0  0  0  0  0
   -2.1490    1.7586   25.4654 C   0  0  0  0  0  0  0  0  0  0  0  0
   -3.1832   -5.6981   19.9956 H   0  0  0  0  0  0  0  0  0  0  0  0
   -2.4983   -6.9624   19.0714 H   0  0  0  0  0  0  0  0  0  0  0  0
   -1.6075   -6.4394   20.4635 H   0  0  0  0  0  0  0  0  0  0  0  0
   -2.7555   -8.2164   21.7704 H   0  0  0  0  0  0  0  0  0  0  0  0
   -1.9804   -9.1894   19.7790 H   0  0  0  0  0  0  0  0  0  0  0  0
   -3.3386   -8.6073   18.8595 H   0  0  0  0  0  0  0  0  0  0  0  0
   -4.2078  -11.2908   20.4409 H   0  0  0  0  0  0  0  0  0  0  0  0
   -2.9441  -11.1061   18.9695 H   0  0  0  0  0  0  0  0  0  0  0  0
   -3.8591  -12.6201   17.8663 H   0  0  0  0  0  0  0  0  0  0  0  0
   -7.7293  -13.5112   16.9645 H   0  0  0  0  0  0  0  0  0  0  0  0
   -7.3769  -14.0978   13.8489 H   0  0  0  0  0  0  0  0  0  0  0  0
   -8.8016  -14.1512   14.7698 H   0  0  0  0  0  0  0  0  0  0  0  0
   -8.4730  -16.2245   13.7436 H   0  0  0  0  0  0  0  0  0  0  0  0
   -6.7683  -16.2695   13.8668 H   0  0  0  0  0  0  0  0  0  0  0  0
   -7.7879  -15.8398   17.4385 H   0  0  0  0  0  0  0  0  0  0  0  0
   -6.0175  -15.9789   16.8033 H   0  0  0  0  0  0  0  0  0  0  0  0
   -2.2669   -6.3885   22.9729 H   0  0  0  0  0  0  0  0  0  0  0  0
   -2.9897   -2.9382   23.3904 H   0  0  0  0  0  0  0  0  0  0  0  0
   -4.4334   -3.4522   24.1045 H   0  0  0  0  0  0  0  0  0  0  0  0
   -3.7868    0.8879   26.3128 H   0  0  0  0  0  0  0  0  0  0  0  0
   -1.0113    0.6273   27.6084 H   0  0  0  0  0  0  0  0  0  0  0  0
   -2.2272    1.8656   27.9768 H   0  0  0  0  0  0  0  0  0  0  0  0
   -2.4909    0.2016   28.4505 H   0  0  0  0  0  0  0  0  0  0  0  0
   -2.3400    1.8371   24.4020 H   0  0  0  0  0  0  0  0  0  0  0  0
   -1.0809    1.9024   25.6583 H   0  0  0  0  0  0  0  0  0  0  0  0
   -2.6014    2.6836   25.8582 H   0  0  0  0  0  0  0  0  0  0  0  0
  1  2  1  0
  2  3  1  0
  3  4  1  0
  4  5  1  0
  5  6  1  0
  6  7  2  0
  6  8  1  0
  8  9  1  0
  9 10  1  0
 10 11  1  0
 11 12  1  0
  2 13  1  0
 13 14  1  0
 14 15  2  0
 14 16  1  0
 16 17  1  0
 17 18  1  0
 18 19  2  0
 19 20  1  0
 20 21  2  0
 21 22  1  0
 22 23  1  0
 22 24  1  0
 12  8  1  0
 21 17  1  0
  1 25  1  0
  1 26  1  0
  1 27  1  0
  2 28  1  0
  3 29  1  0
  3 30  1  0
  4 31  1  0
  4 32  1  0
  5 33  1  0
  8 34  1  0
  9 35  1  0
  9 36  1  0
 10 37  1  0
 10 38  1  0
 12 39  1  0
 12 40  1  0
 13 41  1  0
 16 42  1  0
 16 43  1  0
 22 44  1  0
 23 45  1  0
 23 46  1  0
 23 47  1  0
 24 48  1  0
 24 49  1  0
 24 50  1  0
M  END
>  <Energy>  (484) 
916.57469978430379

>  <compound_id>  (484) 
69517

>  <target_id>  (484) 
1

>  <reference_id>  (484) 
28

>  <inspiration_ids>  (484) 
[28, 70]

>  <energy_score>  (484) 
895.2791755848673

>  <distance_score>  (484) 
9.410932249982581

>  <path>  (484) 
/opt/xchem-fragalysis-2/maxwin/BulkDock/SCRATCH/511015/C69517-P28/C69517-P28.minimised.mol

>  <scratch_subdir>  (484) 
/opt/xchem-fragalysis-2/maxwin/BulkDock/SCRATCH/511015/C69517-P28

>  <fragmenstein_runtime>  (484) 
34.18820381164551

>  <fragmenstein_outcome>  (484) 
too moved

>  <fragmenstein_mode>  (484) 
expansion

>  <fragmenstein_error>  (484) 


$$$$
C69517-P70
     RDKit          3D

 50 51  0  0  0  0  0  0  0  0999 V2000
    0.4384   -8.2854   27.1779 C   0  0  0  0  0  0  0  0  0  0  0  0
    0.0157   -7.0558   26.3754 C   0  0  0  0  0  0  0  0  0  0  0  0
    0.1929   -7.2566   24.8211 C   0  0  0  0  0  0  0  0  0  0  0  0
   -0.4241   -8.5695   24.2441 C   0  0  0  0  0  0  0  0  0  0  0  0
   -0.3674   -8.8042   22.7860 N   0  0  0  0  0  0  0  0  0  0  0  0
   -1.4327   -8.9249   21.7951 C   0  0  0  0  0  0  0  0  0  0  0  0
   -2.6183   -8.7843   21.9033 O   0  0  0  0  0  0  0  0  0  0  0  0
   -0.8784   -9.3514   20.3737 C   0  0  0  0  0  0  0  0  0  0  0  0
   -1.9416   -9.4212   19.2714 C   0  0  0  0  0  0  0  0  0  0  0  0
   -2.4371  -10.8557   19.2965 C   0  0  0  0  0  0  0  0  0  0  0  0
   -1.3431  -11.6576   19.7564 O   0  0  0  0  0  0  0  0  0  0  0  0
   -0.3133  -10.7651   20.2263 C   0  0  0  0  0  0  0  0  0  0  0  0
    0.7261   -5.8753   26.9379 N   0  0  0  0  0  0  0  0  0  0  0  0
    0.3169   -4.9060   27.9510 C   0  0  0  0  0  0  0  0  0  0  0  0
   -0.7255   -4.7722   28.5266 O   0  0  0  0  0  0  0  0  0  0  0  0
    1.4403   -3.9696   28.3975 C   0  0  0  0  0  0  0  0  0  0  0  0
    1.5405   -2.6240   27.8384 N   0  0  0  0  0  0  0  0  0  0  0  0
    2.7968   -2.2623   27.4786 N   0  0  0  0  0  0  0  0  0  0  0  0
    2.7784   -0.9508   27.3339 N   0  0  0  0  0  0  0  0  0  0  0  0
    1.5465   -0.4474   27.6245 N   0  0  0  0  0  0  0  0  0  0  0  0
    0.7676   -1.4735   27.9227 C   0  0  0  0  0  0  0  0  0  0  0  0
   -0.6823   -1.3262   28.2709 C   0  0  0  0  0  0  0  0  0  0  0  0
   -1.2788   -0.0415   27.6670 C   0  0  0  0  0  0  0  0  0  0  0  0
   -0.8657   -1.2474   29.7802 C   0  0  0  0  0  0  0  0  0  0  0  0
    1.4857   -8.5399   26.9821 H   0  0  0  0  0  0  0  0  0  0  0  0
    0.3397   -8.1016   28.2539 H   0  0  0  0  0  0  0  0  0  0  0  0
   -0.1812   -9.1547   26.9395 H   0  0  0  0  0  0  0  0  0  0  0  0
   -1.0493   -6.8825   26.5715 H   0  0  0  0  0  0  0  0  0  0  0  0
   -0.2806   -6.4221   24.2950 H   0  0  0  0  0  0  0  0  0  0  0  0
    1.2598   -7.2296   24.5685 H   0  0  0  0  0  0  0  0  0  0  0  0
   -1.4805   -8.6207   24.5307 H   0  0  0  0  0  0  0  0  0  0  0  0
    0.0851   -9.4325   24.6843 H   0  0  0  0  0  0  0  0  0  0  0  0
    0.5286   -8.9100   22.3238 H   0  0  0  0  0  0  0  0  0  0  0  0
   -0.1184   -8.6016   20.1211 H   0  0  0  0  0  0  0  0  0  0  0  0
   -2.7420   -8.6856   19.3668 H   0  0  0  0  0  0  0  0  0  0  0  0
   -1.4540   -9.2356   18.3050 H   0  0  0  0  0  0  0  0  0  0  0  0
   -3.2667  -10.9726   19.9950 H   0  0  0  0  0  0  0  0  0  0  0  0
   -2.7576  -11.2001   18.3097 H   0  0  0  0  0  0  0  0  0  0  0  0
    0.1563  -11.1626   21.1256 H   0  0  0  0  0  0  0  0  0  0  0  0
    0.4631  -10.7642   19.4508 H   0  0  0  0  0  0  0  0  0  0  0  0
    1.7141   -5.7443   26.7318 H   0  0  0  0  0  0  0  0  0  0  0  0
    2.4030   -4.4723   28.2403 H   0  0  0  0  0  0  0  0  0  0  0  0
    1.3523   -3.8340   29.4833 H   0  0  0  0  0  0  0  0  0  0  0  0
   -1.2410   -2.1845   27.8882 H   0  0  0  0  0  0  0  0  0  0  0  0
   -0.8070    0.8572   28.0812 H   0  0  0  0  0  0  0  0  0  0  0  0
   -1.1672    0.0013   26.5877 H   0  0  0  0  0  0  0  0  0  0  0  0
   -2.3470    0.0152   27.8828 H   0  0  0  0  0  0  0  0  0  0  0  0
   -0.5075   -2.1617   30.2663 H   0  0  0  0  0  0  0  0  0  0  0  0
   -0.3085   -0.4083   30.2133 H   0  0  0  0  0  0  0  0  0  0  0  0
   -1.9197   -1.1238   30.0473 H   0  0  0  0  0  0  0  0  0  0  0  0
  1  2  1  0
  2  3  1  0
  3  4  1  0
  4  5  1  0
  5  6  1  0
  6  7  2  0
  6  8  1  0
  8  9  1  0
  9 10  1  0
 10 11  1  0
 11 12  1  0
  2 13  1  0
 13 14  1  0
 14 15  2  0
 14 16  1  0
 16 17  1  0
 17 18  1  0
 18 19  2  0
 19 20  1  0
 20 21  2  0
 21 22  1  0
 22 23  1  0
 22 24  1  0
 12  8  1  0
 21 17  1  0
  1 25  1  0
  1 26  1  0
  1 27  1  0
  2 28  1  0
  3 29  1  0
  3 30  1  0
  4 31  1  0
  4 32  1  0
  5 33  1  0
  8 34  1  0
  9 35  1  0
  9 36  1  0
 10 37  1  0
 10 38  1  0
 12 39  1  0
 12 40  1  0
 13 41  1  0
 16 42  1  0
 16 43  1  0
 22 44  1  0
 23 45  1  0
 23 46  1  0
 23 47  1  0
 24 48  1  0
 24 49  1  0
 24 50  1  0
M  END
>  <Energy>  (485) 
1.853533278047732

>  <compound_id>  (485) 
69517

>  <target_id>  (485) 
1

>  <reference_id>  (485) 
70

>  <inspiration_ids>  (485) 
[28, 70]

>  <energy_score>  (485) 
-19.44199092138126

>  <distance_score>  (485) 
11.563276817731712

>  <path>  (485) 
/opt/xchem-fragalysis-2/maxwin/BulkDock/SCRATCH/511015/C69517-P70/C69517-P70.minimised.mol

>  <scratch_subdir>  (485) 
/opt/xchem-fragalysis-2/maxwin/BulkDock/SCRATCH/511015/C69517-P70

>  <fragmenstein_runtime>  (485) 
33.35231804847717

>  <fragmenstein_outcome>  (485) 
too moved

>  <fragmenstein_mode>  (485) 
expansion

>  <fragmenstein_error>  (485) 


$$$$
C69528-P28
     RDKit          3D

 42 43  0  0  0  0  0  0  0  0999 V2000
  -14.0327  -15.7546   19.4730 C   0  0  0  0  0  0  0  0  0  0  0  0
  -12.6475  -15.2505   19.8677 C   0  0  0  0  0  0  0  0  0  0  0  0
  -12.7486  -14.8326   21.5167 C   0  0  0  0  0  0  0  0  0  0  0  0
  -12.7316  -15.7781   22.2690 O   0  0  0  0  0  0  0  0  0  0  0  0
  -12.8396  -13.3593   21.8033 N   0  0  0  0  0  0  0  0  0  0  0  0
  -12.8374  -12.5886   23.1445 C   0  0  0  0  0  0  0  0  0  0  0  0
  -12.6098  -11.0284   23.1784 C   0  0  0  0  0  0  0  0  0  0  0  0
  -13.2756  -10.0736   22.4092 C   0  0  0  0  0  0  0  0  0  0  0  0
  -12.8302   -8.8059   22.8227 C   0  0  0  0  0  0  0  0  0  0  0  0
  -11.9443   -8.8881   23.8012 N   0  0  0  0  0  0  0  0  0  0  0  0
  -11.8390  -10.2172   24.0714 N   0  0  0  0  0  0  0  0  0  0  0  0
  -11.0091  -10.5238   25.2502 C   0  0  0  0  0  0  0  0  0  0  0  0
   -9.8074   -9.5528   25.4678 C   0  0  0  0  0  0  0  0  0  0  0  0
  -11.8860  -10.5628   26.5026 C   0  0  0  0  0  0  0  0  0  0  0  0
  -11.4655  -16.4020   19.3670 C   0  0  0  0  0  0  0  0  0  0  0  0
  -11.6355  -17.3748   18.1828 C   0  0  0  0  0  0  0  0  0  0  0  0
   -9.9447  -17.9493   17.4538 C   0  0  0  0  0  0  0  0  0  0  0  0
   -8.9778  -16.5465   17.7328 O   0  0  0  0  0  0  0  0  0  0  0  0
  -10.2842  -15.6724   18.7321 C   0  0  0  0  0  0  0  0  0  0  0  0
  -14.1189  -15.8605   18.3876 H   0  0  0  0  0  0  0  0  0  0  0  0
  -14.8101  -15.0587   19.8054 H   0  0  0  0  0  0  0  0  0  0  0  0
  -14.2391  -16.7262   19.9337 H   0  0  0  0  0  0  0  0  0  0  0  0
  -12.4542  -14.3108   19.3357 H   0  0  0  0  0  0  0  0  0  0  0  0
  -12.9126  -12.8546   20.9287 H   0  0  0  0  0  0  0  0  0  0  0  0
  -12.1409  -13.0946   23.8116 H   0  0  0  0  0  0  0  0  0  0  0  0
  -13.8377  -12.7673   23.5580 H   0  0  0  0  0  0  0  0  0  0  0  0
  -14.0081  -10.2818   21.6414 H   0  0  0  0  0  0  0  0  0  0  0  0
  -13.1197   -7.8322   22.4484 H   0  0  0  0  0  0  0  0  0  0  0  0
  -10.6360  -11.5304   25.0748 H   0  0  0  0  0  0  0  0  0  0  0  0
   -9.2107   -9.4668   24.5540 H   0  0  0  0  0  0  0  0  0  0  0  0
  -10.1467   -8.5500   25.7488 H   0  0  0  0  0  0  0  0  0  0  0  0
   -9.1605   -9.9271   26.2679 H   0  0  0  0  0  0  0  0  0  0  0  0
  -11.3006  -10.8662   27.3768 H   0  0  0  0  0  0  0  0  0  0  0  0
  -12.7083  -11.2772   26.3842 H   0  0  0  0  0  0  0  0  0  0  0  0
  -12.3280   -9.5822   26.7115 H   0  0  0  0  0  0  0  0  0  0  0  0
  -11.2484  -16.9764   20.2668 H   0  0  0  0  0  0  0  0  0  0  0  0
  -12.2849  -18.1796   18.5571 H   0  0  0  0  0  0  0  0  0  0  0  0
  -12.2006  -16.9039   17.3678 H   0  0  0  0  0  0  0  0  0  0  0  0
  -10.0944  -18.2760   16.4156 H   0  0  0  0  0  0  0  0  0  0  0  0
   -9.3857  -18.8584   17.7287 H   0  0  0  0  0  0  0  0  0  0  0  0
   -9.5759  -15.1347   19.3465 H   0  0  0  0  0  0  0  0  0  0  0  0
  -10.9346  -15.0857   18.0898 H   0  0  0  0  0  0  0  0  0  0  0  0
  1  2  1  0
  2  3  1  0
  3  4  2  0
  3  5  1  0
  5  6  1  0
  6  7  1  0
  7  8  2  0
  8  9  1  0
  9 10  2  0
 10 11  1  0
 11 12  1  0
 12 13  1  0
 12 14  1  0
  2 15  1  0
 15 16  1  0
 16 17  1  0
 17 18  1  0
 18 19  1  0
 11  7  1  0
 19 15  1  0
  1 20  1  0
  1 21  1  0
  1 22  1  0
  2 23  1  0
  5 24  1  0
  6 25  1  0
  6 26  1  0
  8 27  1  0
  9 28  1  0
 12 29  1  0
 13 30  1  0
 13 31  1  0
 13 32  1  0
 14 33  1  0
 14 34  1  0
 14 35  1  0
 15 36  1  0
 16 37  1  0
 16 38  1  0
 17 39  1  0
 17 40  1  0
 19 41  1  0
 19 42  1  0
M  END
>  <Energy>  (486) 
162.07046342524606

>  <compound_id>  (486) 
69528

>  <target_id>  (486) 
1

>  <reference_id>  (486) 
28

>  <inspiration_ids>  (486) 
[28, 70]

>  <energy_score>  (486) 
138.90773722982834

>  <distance_score>  (486) 
14.229215508187083

>  <path>  (486) 
/opt/xchem-fragalysis-2/maxwin/BulkDock/SCRATCH/511015/C69528-P28/C69528-P28.minimised.mol

>  <scratch_subdir>  (486) 
/opt/xchem-fragalysis-2/maxwin/BulkDock/SCRATCH/511015/C69528-P28

>  <fragmenstein_runtime>  (486) 
28.245418071746826

>  <fragmenstein_outcome>  (486) 
too moved

>  <fragmenstein_mode>  (486) 
expansion

>  <fragmenstein_error>  (486) 


$$$$
C69528-P70
     RDKit          3D

 42 43  0  0  0  0  0  0  0  0999 V2000
  -12.0074   -5.1687   19.3502 C   0  0  0  0  0  0  0  0  0  0  0  0
  -10.7743   -6.0221   19.0666 C   0  0  0  0  0  0  0  0  0  0  0  0
   -9.9759   -6.2561   20.4163 C   0  0  0  0  0  0  0  0  0  0  0  0
   -9.9755   -7.3685   20.8555 O   0  0  0  0  0  0  0  0  0  0  0  0
   -9.3033   -5.0638   20.8755 N   0  0  0  0  0  0  0  0  0  0  0  0
   -8.3401   -4.8643   21.9566 C   0  0  0  0  0  0  0  0  0  0  0  0
   -8.6280   -3.7111   22.8665 C   0  0  0  0  0  0  0  0  0  0  0  0
   -9.3598   -2.5528   22.6758 C   0  0  0  0  0  0  0  0  0  0  0  0
   -9.2942   -1.8539   23.8929 C   0  0  0  0  0  0  0  0  0  0  0  0
   -8.5506   -2.4859   24.7942 N   0  0  0  0  0  0  0  0  0  0  0  0
   -8.1394   -3.6053   24.1664 N   0  0  0  0  0  0  0  0  0  0  0  0
   -7.3482   -4.5649   24.9399 C   0  0  0  0  0  0  0  0  0  0  0  0
   -6.5622   -3.9196   26.0909 C   0  0  0  0  0  0  0  0  0  0  0  0
   -8.2573   -5.6628   25.5028 C   0  0  0  0  0  0  0  0  0  0  0  0
  -11.1058   -7.3625   18.2839 C   0  0  0  0  0  0  0  0  0  0  0  0
  -12.3618   -8.1543   18.6492 C   0  0  0  0  0  0  0  0  0  0  0  0
  -12.5009   -9.1346   17.4926 C   0  0  0  0  0  0  0  0  0  0  0  0
  -11.9771   -8.4580   16.3421 O   0  0  0  0  0  0  0  0  0  0  0  0
  -11.3723   -7.2233   16.7829 C   0  0  0  0  0  0  0  0  0  0  0  0
  -12.5861   -4.9889   18.4394 H   0  0  0  0  0  0  0  0  0  0  0  0
  -11.7260   -4.1924   19.7589 H   0  0  0  0  0  0  0  0  0  0  0  0
  -12.6588   -5.6479   20.0887 H   0  0  0  0  0  0  0  0  0  0  0  0
  -10.0969   -5.4508   18.4167 H   0  0  0  0  0  0  0  0  0  0  0  0
   -9.4641   -4.3179   20.2116 H   0  0  0  0  0  0  0  0  0  0  0  0
   -7.3656   -4.7130   21.4804 H   0  0  0  0  0  0  0  0  0  0  0  0
   -8.2988   -5.8014   22.5145 H   0  0  0  0  0  0  0  0  0  0  0  0
   -9.8916   -2.2572   21.7834 H   0  0  0  0  0  0  0  0  0  0  0  0
   -9.7447   -0.9039   24.1538 H   0  0  0  0  0  0  0  0  0  0  0  0
   -6.6335   -5.0117   24.2385 H   0  0  0  0  0  0  0  0  0  0  0  0
   -5.7760   -3.2650   25.7078 H   0  0  0  0  0  0  0  0  0  0  0  0
   -7.2160   -3.3469   26.7562 H   0  0  0  0  0  0  0  0  0  0  0  0
   -6.1147   -4.6957   26.7081 H   0  0  0  0  0  0  0  0  0  0  0  0
   -8.9763   -5.2516   26.2206 H   0  0  0  0  0  0  0  0  0  0  0  0
   -7.6670   -6.4302   26.0152 H   0  0  0  0  0  0  0  0  0  0  0  0
   -8.8322   -6.1591   24.7149 H   0  0  0  0  0  0  0  0  0  0  0  0
  -10.2260   -8.0051   18.3728 H   0  0  0  0  0  0  0  0  0  0  0  0
  -13.2361   -7.4911   18.6434 H   0  0  0  0  0  0  0  0  0  0  0  0
  -12.3458   -8.6320   19.6286 H   0  0  0  0  0  0  0  0  0  0  0  0
  -13.5420   -9.4155   17.3106 H   0  0  0  0  0  0  0  0  0  0  0  0
  -11.9173  -10.0423   17.6471 H   0  0  0  0  0  0  0  0  0  0  0  0
  -10.4630   -7.0308   16.2073 H   0  0  0  0  0  0  0  0  0  0  0  0
  -12.0815   -6.4159   16.5699 H   0  0  0  0  0  0  0  0  0  0  0  0
  1  2  1  0
  2  3  1  0
  3  4  2  0
  3  5  1  0
  5  6  1  0
  6  7  1  0
  7  8  2  0
  8  9  1  0
  9 10  2  0
 10 11  1  0
 11 12  1  0
 12 13  1  0
 12 14  1  0
  2 15  1  0
 15 16  1  0
 16 17  1  0
 17 18  1  0
 18 19  1  0
 11  7  1  0
 19 15  1  0
  1 20  1  0
  1 21  1  0
  1 22  1  0
  2 23  1  0
  5 24  1  0
  6 25  1  0
  6 26  1  0
  8 27  1  0
  9 28  1  0
 12 29  1  0
 13 30  1  0
 13 31  1  0
 13 32  1  0
 14 33  1  0
 14 34  1  0
 14 35  1  0
 15 36  1  0
 16 37  1  0
 16 38  1  0
 17 39  1  0
 17 40  1  0
 19 41  1  0
 19 42  1  0
M  END
>  <Energy>  (487) 
-1.9176451867962494

>  <compound_id>  (487) 
69528

>  <target_id>  (487) 
1

>  <reference_id>  (487) 
70

>  <inspiration_ids>  (487) 
[28, 70]

>  <energy_score>  (487) 
-25.080371382215787

>  <distance_score>  (487) 
13.028006777073363

>  <path>  (487) 
/opt/xchem-fragalysis-2/maxwin/BulkDock/SCRATCH/511015/C69528-P70/C69528-P70.minimised.mol

>  <scratch_subdir>  (487) 
/opt/xchem-fragalysis-2/maxwin/BulkDock/SCRATCH/511015/C69528-P70

>  <fragmenstein_runtime>  (487) 
27.76467990875244

>  <fragmenstein_outcome>  (487) 
too moved

>  <fragmenstein_mode>  (487) 
expansion

>  <fragmenstein_error>  (487) 


$$$$
C69545-P28
     RDKit          3D

 52 53  0  0  0  0  0  0  0  0999 V2000
  -11.8512  -25.1335   13.3820 C   0  0  0  0  0  0  0  0  0  0  0  0
  -11.4733  -23.7373   12.8806 C   0  0  0  0  0  0  0  0  0  0  0  0
  -10.7440  -23.8612   11.5608 C   0  0  0  0  0  0  0  0  0  0  0  0
  -10.7308  -23.0082   13.9129 N   0  0  0  0  0  0  0  0  0  0  0  0
   -9.3950  -23.2193   14.1409 C   0  0  0  0  0  0  0  0  0  0  0  0
   -8.6585  -21.8899   14.9413 C   0  0  0  0  0  0  0  0  0  0  0  0
   -9.5425  -20.4575   16.1560 N   0  0  0  0  0  0  0  0  0  0  0  0
   -8.8160  -19.4374   17.7566 C   0  0  0  0  0  0  0  0  0  0  0  0
   -8.9261  -19.8605   18.8887 O   0  0  0  0  0  0  0  0  0  0  0  0
   -8.0501  -17.6479   17.3858 N   0  0  0  0  0  0  0  0  0  0  0  0
   -7.1783  -16.2046   18.6074 C   0  0  0  0  0  0  0  0  0  0  0  0
   -6.1229  -14.2818   18.6577 C   0  0  0  0  0  0  0  0  0  0  0  0
   -4.8620  -12.6057   19.3219 C   0  0  0  0  0  0  0  0  0  0  0  0
   -4.5794  -11.1375   20.7105 O   0  0  0  0  0  0  0  0  0  0  0  0
   -3.8987   -9.5741   21.9023 C   0  0  0  0  0  0  0  0  0  0  0  0
   -4.6373   -7.5126   22.1589 C   0  0  0  0  0  0  0  0  0  0  0  0
   -4.3400   -5.6791   21.4473 C   0  0  0  0  0  0  0  0  0  0  0  0
   -5.3342   -4.6919   20.9558 C   0  0  0  0  0  0  0  0  0  0  0  0
   -6.4431   -5.0593   21.6050 O   0  0  0  0  0  0  0  0  0  0  0  0
   -6.4216   -6.3419   22.2791 C   0  0  0  0  0  0  0  0  0  0  0  0
  -10.1767  -21.6565   16.0788 C   0  0  0  0  0  0  0  0  0  0  0  0
  -10.6501  -21.6814   14.2628 C   0  0  0  0  0  0  0  0  0  0  0  0
  -10.8457  -20.7362   13.5268 O   0  0  0  0  0  0  0  0  0  0  0  0
  -10.9626  -25.7337   13.6063 H   0  0  0  0  0  0  0  0  0  0  0  0
  -12.4440  -25.6695   12.6331 H   0  0  0  0  0  0  0  0  0  0  0  0
  -12.4482  -25.0751   14.2967 H   0  0  0  0  0  0  0  0  0  0  0  0
  -12.4013  -23.1814   12.7257 H   0  0  0  0  0  0  0  0  0  0  0  0
  -11.4245  -24.2320   10.7872 H   0  0  0  0  0  0  0  0  0  0  0  0
  -10.3501  -22.8897   11.2580 H   0  0  0  0  0  0  0  0  0  0  0  0
   -9.9038  -24.5619   11.6195 H   0  0  0  0  0  0  0  0  0  0  0  0
   -8.8913  -23.3009   13.1712 H   0  0  0  0  0  0  0  0  0  0  0  0
   -9.3339  -24.1416   14.7241 H   0  0  0  0  0  0  0  0  0  0  0  0
   -7.8912  -21.5718   14.2062 H   0  0  0  0  0  0  0  0  0  0  0  0
   -8.0189  -22.5058   15.5534 H   0  0  0  0  0  0  0  0  0  0  0  0
   -8.1208  -17.4536   16.4153 H   0  0  0  0  0  0  0  0  0  0  0  0
   -7.7165  -15.6116   17.8555 H   0  0  0  0  0  0  0  0  0  0  0  0
   -6.2139  -16.6928   18.4816 H   0  0  0  0  0  0  0  0  0  0  0  0
   -7.0313  -13.6648   18.5497 H   0  0  0  0  0  0  0  0  0  0  0  0
   -5.6445  -14.3893   17.6714 H   0  0  0  0  0  0  0  0  0  0  0  0
   -4.7495  -12.0090   18.4068 H   0  0  0  0  0  0  0  0  0  0  0  0
   -3.8774  -13.0786   19.4604 H   0  0  0  0  0  0  0  0  0  0  0  0
   -3.4712   -9.9114   22.8466 H   0  0  0  0  0  0  0  0  0  0  0  0
   -4.7462   -9.9764   22.2250 H   0  0  0  0  0  0  0  0  0  0  0  0
   -3.9960   -7.1686   22.9011 H   0  0  0  0  0  0  0  0  0  0  0  0
   -3.7773   -5.0067   22.0224 H   0  0  0  0  0  0  0  0  0  0  0  0
   -3.5696   -5.4064   20.7469 H   0  0  0  0  0  0  0  0  0  0  0  0
   -5.1047   -3.6598   21.2465 H   0  0  0  0  0  0  0  0  0  0  0  0
   -5.4607   -4.6210   19.8817 H   0  0  0  0  0  0  0  0  0  0  0  0
   -7.2775   -6.8425   21.7027 H   0  0  0  0  0  0  0  0  0  0  0  0
   -7.1352   -6.1586   23.0762 H   0  0  0  0  0  0  0  0  0  0  0  0
   -9.4602  -21.8162   16.8320 H   0  0  0  0  0  0  0  0  0  0  0  0
   -9.9954  -22.7610   16.1088 H   0  0  0  0  0  0  0  0  0  0  0  0
  1  2  1  0
  2  3  1  0
  2  4  1  0
  4  5  1  0
  5  6  1  0
  6  7  1  0
  7  8  1  0
  8  9  2  0
  8 10  1  0
 10 11  1  0
 11 12  1  0
 12 13  1  0
 13 14  1  0
 14 15  1  0
 15 16  1  0
 16 17  1  0
 17 18  1  0
 18 19  1  0
 19 20  1  0
  7 21  1  0
 21 22  1  0
 22 23  2  0
 22  4  1  0
 20 16  1  0
  1 24  1  0
  1 25  1  0
  1 26  1  0
  2 27  1  0
  3 28  1  0
  3 29  1  0
  3 30  1  0
  5 31  1  0
  5 32  1  0
  6 33  1  0
  6 34  1  0
 10 35  1  0
 11 36  1  0
 11 37  1  0
 12 38  1  0
 12 39  1  0
 13 40  1  0
 13 41  1  0
 15 42  1  0
 15 43  1  0
 16 44  1  0
 17 45  1  0
 17 46  1  0
 18 47  1  0
 18 48  1  0
 20 49  1  0
 20 50  1  0
 21 51  1  0
 21 52  1  0
M  END
>  <Energy>  (488) 
1911.8433275865898

>  <compound_id>  (488) 
69545

>  <target_id>  (488) 
1

>  <reference_id>  (488) 
28

>  <inspiration_ids>  (488) 
[28, 70]

>  <energy_score>  (488) 
1869.4855937426494

>  <distance_score>  (488) 
9.843400991598848

>  <path>  (488) 
/opt/xchem-fragalysis-2/maxwin/BulkDock/SCRATCH/511015/C69545-P28/C69545-P28.minimised.mol

>  <scratch_subdir>  (488) 
/opt/xchem-fragalysis-2/maxwin/BulkDock/SCRATCH/511015/C69545-P28

>  <fragmenstein_runtime>  (488) 
14.309528350830078

>  <fragmenstein_outcome>  (488) 
too moved

>  <fragmenstein_mode>  (488) 
expansion

>  <fragmenstein_error>  (488) 


$$$$
C69545-P70
     RDKit          3D

 52 53  0  0  0  0  0  0  0  0999 V2000
  -14.0628  -25.4983    9.7006 C   0  0  0  0  0  0  0  0  0  0  0  0
  -13.2352  -26.0386   10.8681 C   0  0  0  0  0  0  0  0  0  0  0  0
  -14.0720  -26.0987   12.1456 C   0  0  0  0  0  0  0  0  0  0  0  0
  -11.9956  -25.2684   11.0425 N   0  0  0  0  0  0  0  0  0  0  0  0
  -11.9832  -23.9166   11.5460 C   0  0  0  0  0  0  0  0  0  0  0  0
  -10.5390  -23.5449   11.9561 C   0  0  0  0  0  0  0  0  0  0  0  0
   -9.5253  -23.1478   10.8946 N   0  0  0  0  0  0  0  0  0  0  0  0
   -9.9596  -21.9214   10.2159 C   0  0  0  0  0  0  0  0  0  0  0  0
  -10.6160  -21.7795    9.2493 O   0  0  0  0  0  0  0  0  0  0  0  0
   -9.2515  -20.9325   11.0412 N   0  0  0  0  0  0  0  0  0  0  0  0
   -9.0619  -19.4767   10.8577 C   0  0  0  0  0  0  0  0  0  0  0  0
  -10.0554  -18.5125   11.6309 C   0  0  0  0  0  0  0  0  0  0  0  0
  -10.1796  -16.8262   12.3633 C   0  0  0  0  0  0  0  0  0  0  0  0
   -9.0828  -16.1837   13.1542 O   0  0  0  0  0  0  0  0  0  0  0  0
   -9.4796  -14.9543   13.8790 C   0  0  0  0  0  0  0  0  0  0  0  0
   -8.5205  -14.4132   15.0511 C   0  0  0  0  0  0  0  0  0  0  0  0
   -9.1484  -13.3967   16.0221 C   0  0  0  0  0  0  0  0  0  0  0  0
   -7.9500  -12.7723   16.7266 C   0  0  0  0  0  0  0  0  0  0  0  0
   -6.8944  -12.7599   15.7586 O   0  0  0  0  0  0  0  0  0  0  0  0
   -7.2853  -13.6006   14.6423 C   0  0  0  0  0  0  0  0  0  0  0  0
   -9.6890  -24.6060   10.4992 C   0  0  0  0  0  0  0  0  0  0  0  0
  -10.8857  -25.5728   10.2820 C   0  0  0  0  0  0  0  0  0  0  0  0
  -10.7831  -26.5925    9.6045 O   0  0  0  0  0  0  0  0  0  0  0  0
  -14.3973  -24.4723    9.8893 H   0  0  0  0  0  0  0  0  0  0  0  0
  -14.9499  -26.1181    9.5335 H   0  0  0  0  0  0  0  0  0  0  0  0
  -13.4774  -25.4903    8.7749 H   0  0  0  0  0  0  0  0  0  0  0  0
  -12.9484  -27.0682   10.6200 H   0  0  0  0  0  0  0  0  0  0  0  0
  -14.9092  -26.7943   12.0240 H   0  0  0  0  0  0  0  0  0  0  0  0
  -13.4665  -26.4421   12.9912 H   0  0  0  0  0  0  0  0  0  0  0  0
  -14.4916  -25.1213   12.4059 H   0  0  0  0  0  0  0  0  0  0  0  0
  -12.3733  -23.2457   10.7763 H   0  0  0  0  0  0  0  0  0  0  0  0
  -12.6272  -23.8618   12.4260 H   0  0  0  0  0  0  0  0  0  0  0  0
  -10.6486  -22.6293   12.5553 H   0  0  0  0  0  0  0  0  0  0  0  0
  -10.1124  -24.2612   12.6794 H   0  0  0  0  0  0  0  0  0  0  0  0
   -8.7169  -21.4134   11.7491 H   0  0  0  0  0  0  0  0  0  0  0  0
   -9.1945  -19.3790    9.7749 H   0  0  0  0  0  0  0  0  0  0  0  0
   -8.0284  -19.2241   11.0801 H   0  0  0  0  0  0  0  0  0  0  0  0
  -10.4276  -18.3187   10.6720 H   0  0  0  0  0  0  0  0  0  0  0  0
  -10.7784  -19.1166   12.2001 H   0  0  0  0  0  0  0  0  0  0  0  0
  -10.4728  -16.0988   11.5955 H   0  0  0  0  0  0  0  0  0  0  0  0
  -11.0412  -16.9053   13.0421 H   0  0  0  0  0  0  0  0  0  0  0  0
  -10.4526  -15.1607   14.3396 H   0  0  0  0  0  0  0  0  0  0  0  0
   -9.6156  -14.1676   13.1292 H   0  0  0  0  0  0  0  0  0  0  0  0
   -8.1904  -15.2773   15.6389 H   0  0  0  0  0  0  0  0  0  0  0  0
   -9.6866  -12.6293   15.4524 H   0  0  0  0  0  0  0  0  0  0  0  0
   -9.8514  -13.8552   16.7233 H   0  0  0  0  0  0  0  0  0  0  0  0
   -8.1487  -11.7559   17.0772 H   0  0  0  0  0  0  0  0  0  0  0  0
   -7.6250  -13.3849   17.5739 H   0  0  0  0  0  0  0  0  0  0  0  0
   -6.4435  -14.2438   14.3694 H   0  0  0  0  0  0  0  0  0  0  0  0
   -7.5045  -12.9393   13.7970 H   0  0  0  0  0  0  0  0  0  0  0  0
   -9.2449  -24.5819    9.4910 H   0  0  0  0  0  0  0  0  0  0  0  0
   -8.9575  -25.1714   11.0977 H   0  0  0  0  0  0  0  0  0  0  0  0
  1  2  1  0
  2  3  1  0
  2  4  1  0
  4  5  1  0
  5  6  1  0
  6  7  1  0
  7  8  1  0
  8  9  2  0
  8 10  1  0
 10 11  1  0
 11 12  1  0
 12 13  1  0
 13 14  1  0
 14 15  1  0
 15 16  1  0
 16 17  1  0
 17 18  1  0
 18 19  1  0
 19 20  1  0
  7 21  1  0
 21 22  1  0
 22 23  2  0
 22  4  1  0
 20 16  1  0
  1 24  1  0
  1 25  1  0
  1 26  1  0
  2 27  1  0
  3 28  1  0
  3 29  1  0
  3 30  1  0
  5 31  1  0
  5 32  1  0
  6 33  1  0
  6 34  1  0
 10 35  1  0
 11 36  1  0
 11 37  1  0
 12 38  1  0
 12 39  1  0
 13 40  1  0
 13 41  1  0
 15 42  1  0
 15 43  1  0
 16 44  1  0
 17 45  1  0
 17 46  1  0
 18 47  1  0
 18 48  1  0
 20 49  1  0
 20 50  1  0
 21 51  1  0
 21 52  1  0
M  END
>  <Energy>  (489) 
139.60875702753648

>  <compound_id>  (489) 
69545

>  <target_id>  (489) 
1

>  <reference_id>  (489) 
70

>  <inspiration_ids>  (489) 
[28, 70]

>  <energy_score>  (489) 
97.25102318357605

>  <distance_score>  (489) 
11.872539322269427

>  <path>  (489) 
/opt/xchem-fragalysis-2/maxwin/BulkDock/SCRATCH/511015/C69545-P70/C69545-P70.minimised.mol

>  <scratch_subdir>  (489) 
/opt/xchem-fragalysis-2/maxwin/BulkDock/SCRATCH/511015/C69545-P70

>  <fragmenstein_runtime>  (489) 
13.75233244895935

>  <fragmenstein_outcome>  (489) 
too moved

>  <fragmenstein_mode>  (489) 
expansion

>  <fragmenstein_error>  (489) 


$$$$
C20412-P28
     RDKit          3D

 41 42  0  0  0  0  0  0  0  0999 V2000
   -5.3517  -10.5194   16.7709 O   0  0  0  0  0  0  0  0  0  0  0  0
   -5.4983  -11.3243   17.6373 C   0  0  0  0  0  0  0  0  0  0  0  0
   -3.9931  -11.4493   18.6066 C   0  0  0  0  0  0  0  0  0  0  0  0
   -2.8726  -10.1061   18.3240 C   0  0  0  0  0  0  0  0  0  0  0  0
   -2.6526   -8.6028   18.8939 C   0  0  0  0  0  0  0  0  0  0  0  0
   -3.5097   -7.4184   18.4260 C   0  0  0  0  0  0  0  0  0  0  0  0
   -3.0466   -6.2609   19.3044 C   0  0  0  0  0  0  0  0  0  0  0  0
   -2.7614   -6.9268   20.6289 C   0  0  0  0  0  0  0  0  0  0  0  0
   -2.3484   -8.3093   20.3199 N   0  0  0  0  0  0  0  0  0  0  0  0
   -6.6518  -12.2389   17.9184 N   0  0  0  0  0  0  0  0  0  0  0  0
   -8.1861  -12.5416   16.9662 C   0  0  0  0  0  0  0  0  0  0  0  0
   -8.8845  -13.0358   15.0448 C   0  0  0  0  0  0  0  0  0  0  0  0
   -7.8343  -14.6691   15.1637 C   0  0  0  0  0  0  0  0  0  0  0  0
   -7.8495  -15.6576   14.4851 O   0  0  0  0  0  0  0  0  0  0  0  0
   -6.9984  -14.7596   16.2624 O   0  0  0  0  0  0  0  0  0  0  0  0
   -8.1915  -12.9234   13.3642 C   0  0  0  0  0  0  0  0  0  0  0  0
   -9.2193  -12.6531   12.3735 C   0  0  0  0  0  0  0  0  0  0  0  0
   -9.5431  -11.4109   12.9418 O   0  0  0  0  0  0  0  0  0  0  0  0
   -9.2422  -11.5194   14.3825 C   0  0  0  0  0  0  0  0  0  0  0  0
   -4.2022  -11.6113   19.6636 H   0  0  0  0  0  0  0  0  0  0  0  0
   -3.3912  -12.2885   18.2711 H   0  0  0  0  0  0  0  0  0  0  0  0
   -1.8943  -10.5868   18.4657 H   0  0  0  0  0  0  0  0  0  0  0  0
   -2.9666   -9.9411   17.2444 H   0  0  0  0  0  0  0  0  0  0  0  0
   -1.6872   -8.3749   18.4064 H   0  0  0  0  0  0  0  0  0  0  0  0
   -4.5773   -7.5736   18.5678 H   0  0  0  0  0  0  0  0  0  0  0  0
   -3.3405   -7.1896   17.3689 H   0  0  0  0  0  0  0  0  0  0  0  0
   -2.1286   -5.8262   18.8909 H   0  0  0  0  0  0  0  0  0  0  0  0
   -3.7992   -5.4708   19.3797 H   0  0  0  0  0  0  0  0  0  0  0  0
   -1.9905   -6.3965   21.1968 H   0  0  0  0  0  0  0  0  0  0  0  0
   -3.6656   -6.9563   21.2456 H   0  0  0  0  0  0  0  0  0  0  0  0
   -1.3320   -8.3537   20.4024 H   0  0  0  0  0  0  0  0  0  0  0  0
   -6.4819  -12.7280   18.7770 H   0  0  0  0  0  0  0  0  0  0  0  0
   -8.9080  -12.4538   17.7960 H   0  0  0  0  0  0  0  0  0  0  0  0
   -8.0285  -11.6115   16.5486 H   0  0  0  0  0  0  0  0  0  0  0  0
   -6.7798  -15.7155   16.2751 H   0  0  0  0  0  0  0  0  0  0  0  0
   -7.4855  -12.0895   13.2479 H   0  0  0  0  0  0  0  0  0  0  0  0
   -7.4701  -13.6469   13.2058 H   0  0  0  0  0  0  0  0  0  0  0  0
  -10.0343  -13.3802   12.3613 H   0  0  0  0  0  0  0  0  0  0  0  0
   -8.8612  -12.4830   11.3589 H   0  0  0  0  0  0  0  0  0  0  0  0
  -10.1318  -11.0787   14.7838 H   0  0  0  0  0  0  0  0  0  0  0  0
   -8.4697  -10.7650   14.5266 H   0  0  0  0  0  0  0  0  0  0  0  0
  1  2  2  0
  2  3  1  0
  3  4  1  0
  4  5  1  0
  5  6  1  0
  6  7  1  0
  7  8  1  0
  8  9  1  0
  2 10  1  0
 10 11  1  0
 11 12  1  0
 12 13  1  0
 13 14  2  0
 13 15  1  0
 12 16  1  0
 16 17  1  0
 17 18  1  0
 18 19  1  0
  9  5  1  0
 19 12  1  0
  3 20  1  0
  3 21  1  0
  4 22  1  0
  4 23  1  0
  5 24  1  0
  6 25  1  0
  6 26  1  0
  7 27  1  0
  7 28  1  0
  8 29  1  0
  8 30  1  0
  9 31  1  0
 10 32  1  0
 11 33  1  0
 11 34  1  0
 15 35  1  0
 16 36  1  0
 16 37  1  0
 17 38  1  0
 17 39  1  0
 19 40  1  0
 19 41  1  0
M  END
>  <Energy>  (490) 
356.2006343435275

>  <compound_id>  (490) 
20412

>  <target_id>  (490) 
1

>  <reference_id>  (490) 
28

>  <inspiration_ids>  (490) 
[28, 70]

>  <energy_score>  (490) 
363.41804525000794

>  <distance_score>  (490) 
12.521665009745876

>  <path>  (490) 
/opt/xchem-fragalysis-2/maxwin/BulkDock/SCRATCH/511015/C20412-P28/C20412-P28.minimised.mol

>  <scratch_subdir>  (490) 
/opt/xchem-fragalysis-2/maxwin/BulkDock/SCRATCH/511015/C20412-P28

>  <fragmenstein_runtime>  (490) 
24.010941982269287

>  <fragmenstein_outcome>  (490) 
too moved

>  <fragmenstein_mode>  (490) 
expansion

>  <fragmenstein_error>  (490) 


$$$$
C20412-P70
     RDKit          3D

 41 42  0  0  0  0  0  0  0  0999 V2000
   -9.5915  -13.0226   13.7454 O   0  0  0  0  0  0  0  0  0  0  0  0
   -8.7326  -13.4224   14.5095 C   0  0  0  0  0  0  0  0  0  0  0  0
   -8.2303  -12.2446   16.2028 C   0  0  0  0  0  0  0  0  0  0  0  0
   -7.0687  -10.7318   16.9015 C   0  0  0  0  0  0  0  0  0  0  0  0
   -6.6145   -9.0598   16.2470 C   0  0  0  0  0  0  0  0  0  0  0  0
   -6.7172   -8.5505   14.8080 C   0  0  0  0  0  0  0  0  0  0  0  0
   -6.2433   -7.0858   14.9210 C   0  0  0  0  0  0  0  0  0  0  0  0
   -5.3273   -7.0552   16.1286 C   0  0  0  0  0  0  0  0  0  0  0  0
   -5.2758   -8.4523   16.5594 N   0  0  0  0  0  0  0  0  0  0  0  0
   -7.8814  -14.9518   14.4955 N   0  0  0  0  0  0  0  0  0  0  0  0
   -8.1034  -16.4178   13.4468 C   0  0  0  0  0  0  0  0  0  0  0  0
   -7.1313  -18.0955   13.8748 C   0  0  0  0  0  0  0  0  0  0  0  0
   -6.2151  -17.3066   12.7451 C   0  0  0  0  0  0  0  0  0  0  0  0
   -5.2312  -16.6079   12.8844 O   0  0  0  0  0  0  0  0  0  0  0  0
   -6.7983  -17.4751   11.5549 O   0  0  0  0  0  0  0  0  0  0  0  0
   -8.0104  -17.6959   15.9215 C   0  0  0  0  0  0  0  0  0  0  0  0
   -8.1034  -19.5700   16.8199 C   0  0  0  0  0  0  0  0  0  0  0  0
   -7.2800  -20.8390   15.6013 O   0  0  0  0  0  0  0  0  0  0  0  0
   -7.4445  -20.2778   13.6105 C   0  0  0  0  0  0  0  0  0  0  0  0
   -8.9597  -12.1441   17.0341 H   0  0  0  0  0  0  0  0  0  0  0  0
   -7.7042  -13.0619   16.7276 H   0  0  0  0  0  0  0  0  0  0  0  0
   -7.4735  -10.7219   17.9133 H   0  0  0  0  0  0  0  0  0  0  0  0
   -6.0537  -11.1223   17.1784 H   0  0  0  0  0  0  0  0  0  0  0  0
   -7.3119   -8.4111   16.8019 H   0  0  0  0  0  0  0  0  0  0  0  0
   -6.0412   -9.0879   14.1327 H   0  0  0  0  0  0  0  0  0  0  0  0
   -7.7245   -8.5892   14.3836 H   0  0  0  0  0  0  0  0  0  0  0  0
   -5.7325   -6.7751   14.0039 H   0  0  0  0  0  0  0  0  0  0  0  0
   -7.1015   -6.4220   15.0764 H   0  0  0  0  0  0  0  0  0  0  0  0
   -4.3295   -6.6793   15.8830 H   0  0  0  0  0  0  0  0  0  0  0  0
   -5.7425   -6.4256   16.9227 H   0  0  0  0  0  0  0  0  0  0  0  0
   -4.5532   -8.9336   16.0241 H   0  0  0  0  0  0  0  0  0  0  0  0
   -7.2595  -15.0065   15.2989 H   0  0  0  0  0  0  0  0  0  0  0  0
   -8.7508  -16.8580   14.1152 H   0  0  0  0  0  0  0  0  0  0  0  0
   -8.8929  -16.3942   12.6856 H   0  0  0  0  0  0  0  0  0  0  0  0
   -7.1211  -18.3761   11.2815 H   0  0  0  0  0  0  0  0  0  0  0  0
   -7.7705  -16.9209   16.6977 H   0  0  0  0  0  0  0  0  0  0  0  0
   -8.9748  -17.2945   15.8220 H   0  0  0  0  0  0  0  0  0  0  0  0
   -9.0842  -20.0241   16.9442 H   0  0  0  0  0  0  0  0  0  0  0  0
   -7.4073  -19.5279   17.6771 H   0  0  0  0  0  0  0  0  0  0  0  0
   -8.3203  -21.0184   13.4381 H   0  0  0  0  0  0  0  0  0  0  0  0
   -6.9304  -20.7201   12.7003 H   0  0  0  0  0  0  0  0  0  0  0  0
  1  2  2  0
  2  3  1  0
  3  4  1  0
  4  5  1  0
  5  6  1  0
  6  7  1  0
  7  8  1  0
  8  9  1  0
  2 10  1  0
 10 11  1  0
 11 12  1  0
 12 13  1  0
 13 14  2  0
 13 15  1  0
 12 16  1  0
 16 17  1  0
 17 18  1  0
 18 19  1  0
  9  5  1  0
 19 12  1  0
  3 20  1  0
  3 21  1  0
  4 22  1  0
  4 23  1  0
  5 24  1  0
  6 25  1  0
  6 26  1  0
  7 27  1  0
  7 28  1  0
  8 29  1  0
  8 30  1  0
  9 31  1  0
 10 32  1  0
 11 33  1  0
 11 34  1  0
 15 35  1  0
 16 36  1  0
 16 37  1  0
 17 38  1  0
 17 39  1  0
 19 40  1  0
 19 41  1  0
M  END
>  <Energy>  (491) 
963.57128838587937

>  <compound_id>  (491) 
20412

>  <target_id>  (491) 
1

>  <reference_id>  (491) 
70

>  <inspiration_ids>  (491) 
[28, 70]

>  <energy_score>  (491) 
970.7886992923551

>  <distance_score>  (491) 
12.973724806976298

>  <path>  (491) 
/opt/xchem-fragalysis-2/maxwin/BulkDock/SCRATCH/511015/C20412-P70/C20412-P70.minimised.mol

>  <scratch_subdir>  (491) 
/opt/xchem-fragalysis-2/maxwin/BulkDock/SCRATCH/511015/C20412-P70

>  <fragmenstein_runtime>  (491) 
19.590821504592896

>  <fragmenstein_outcome>  (491) 
too moved

>  <fragmenstein_mode>  (491) 
expansion

>  <fragmenstein_error>  (491) 


$$$$
C20413-P28
     RDKit          3D

 39 40  0  0  0  0  0  0  0  0999 V2000
   -9.6214   -4.9324   21.0726 C   0  0  0  0  0  0  0  0  0  0  0  0
   -8.7518   -6.2235   21.2170 C   0  0  0  0  0  0  0  0  0  0  0  0
   -9.1885   -7.1736   20.0408 N   0  0  0  0  0  0  0  0  0  0  0  0
   -8.2600   -8.1244   18.9742 C   0  0  0  0  0  0  0  0  0  0  0  0
   -7.1277   -7.7509   17.7698 C   0  0  0  0  0  0  0  0  0  0  0  0
   -8.6432   -9.7308   18.9820 C   0  0  0  0  0  0  0  0  0  0  0  0
  -10.1959  -10.8486   18.7185 C   0  0  0  0  0  0  0  0  0  0  0  0
   -9.5086  -12.2933   18.7291 C   0  0  0  0  0  0  0  0  0  0  0  0
   -8.0389  -12.1832   18.5200 C   0  0  0  0  0  0  0  0  0  0  0  0
   -7.6733  -10.8534   18.9577 O   0  0  0  0  0  0  0  0  0  0  0  0
   -8.8009   -6.6015   22.7877 C   0  0  0  0  0  0  0  0  0  0  0  0
   -9.1677   -5.5062   23.8215 C   0  0  0  0  0  0  0  0  0  0  0  0
   -7.8954   -4.7125   24.0849 C   0  0  0  0  0  0  0  0  0  0  0  0
   -6.7860   -5.6600   23.6838 C   0  0  0  0  0  0  0  0  0  0  0  0
   -7.4486   -6.9283   23.3199 N   0  0  0  0  0  0  0  0  0  0  0  0
   -9.8135   -4.6297   20.0396 H   0  0  0  0  0  0  0  0  0  0  0  0
   -9.1524   -4.0737   21.5611 H   0  0  0  0  0  0  0  0  0  0  0  0
  -10.6190   -5.0980   21.4960 H   0  0  0  0  0  0  0  0  0  0  0  0
   -7.6942   -6.0457   21.1007 H   0  0  0  0  0  0  0  0  0  0  0  0
   -9.8223   -6.6613   19.4253 H   0  0  0  0  0  0  0  0  0  0  0  0
   -7.6633   -8.4709   19.7392 H   0  0  0  0  0  0  0  0  0  0  0  0
   -6.0959   -7.7713   18.0246 H   0  0  0  0  0  0  0  0  0  0  0  0
   -7.1566   -6.8113   17.2154 H   0  0  0  0  0  0  0  0  0  0  0  0
   -7.1298   -8.5591   17.0445 H   0  0  0  0  0  0  0  0  0  0  0  0
   -9.0992   -9.3013   19.7638 H   0  0  0  0  0  0  0  0  0  0  0  0
  -10.7135  -11.1424   17.8002 H   0  0  0  0  0  0  0  0  0  0  0  0
  -11.0885  -10.2362   18.8679 H   0  0  0  0  0  0  0  0  0  0  0  0
  -10.2181  -12.7461   18.0834 H   0  0  0  0  0  0  0  0  0  0  0  0
   -9.4368  -13.0431   19.5031 H   0  0  0  0  0  0  0  0  0  0  0  0
   -7.8462  -12.3394   17.4878 H   0  0  0  0  0  0  0  0  0  0  0  0
   -7.4463  -12.8509   19.1221 H   0  0  0  0  0  0  0  0  0  0  0  0
   -9.4774   -7.4550   22.9084 H   0  0  0  0  0  0  0  0  0  0  0  0
   -9.4622   -6.0019   24.7585 H   0  0  0  0  0  0  0  0  0  0  0  0
  -10.0125   -4.8677   23.5565 H   0  0  0  0  0  0  0  0  0  0  0  0
   -7.8285   -4.4164   25.1366 H   0  0  0  0  0  0  0  0  0  0  0  0
   -7.8669   -3.8071   23.4729 H   0  0  0  0  0  0  0  0  0  0  0  0
   -6.0696   -5.8197   24.4960 H   0  0  0  0  0  0  0  0  0  0  0  0
   -6.2295   -5.2633   22.8280 H   0  0  0  0  0  0  0  0  0  0  0  0
   -7.5730   -7.4699   24.1783 H   0  0  0  0  0  0  0  0  0  0  0  0
  1  2  1  0
  2  3  1  0
  3  4  1  0
  4  5  1  0
  4  6  1  0
  6  7  1  0
  7  8  1  0
  8  9  1  0
  9 10  1  0
  2 11  1  0
 11 12  1  0
 12 13  1  0
 13 14  1  0
 14 15  1  0
 10  6  1  0
 15 11  1  0
  1 16  1  0
  1 17  1  0
  1 18  1  0
  2 19  1  0
  3 20  1  0
  4 21  1  0
  5 22  1  0
  5 23  1  0
  5 24  1  0
  6 25  1  0
  7 26  1  0
  7 27  1  0
  8 28  1  0
  8 29  1  0
  9 30  1  0
  9 31  1  0
 11 32  1  0
 12 33  1  0
 12 34  1  0
 13 35  1  0
 13 36  1  0
 14 37  1  0
 14 38  1  0
 15 39  1  0
M  END
>  <Energy>  (492) 
342.8192946911355

>  <compound_id>  (492) 
20413

>  <target_id>  (492) 
1

>  <reference_id>  (492) 
28

>  <inspiration_ids>  (492) 
[28, 70]

>  <energy_score>  (492) 
254.4548408558092

>  <distance_score>  (492) 
12.393457948618247

>  <path>  (492) 
/opt/xchem-fragalysis-2/maxwin/BulkDock/SCRATCH/511015/C20413-P28/C20413-P28.minimised.mol

>  <scratch_subdir>  (492) 
/opt/xchem-fragalysis-2/maxwin/BulkDock/SCRATCH/511015/C20413-P28

>  <fragmenstein_runtime>  (492) 
20.703095197677612

>  <fragmenstein_outcome>  (492) 
too moved

>  <fragmenstein_mode>  (492) 
expansion

>  <fragmenstein_error>  (492) 


$$$$
C20413-P70
     RDKit          3D

 39 40  0  0  0  0  0  0  0  0999 V2000
   -8.3974   -5.8337   19.0460 C   0  0  0  0  0  0  0  0  0  0  0  0
   -9.0702   -7.1647   19.6482 C   0  0  0  0  0  0  0  0  0  0  0  0
   -8.3633   -8.5707   19.0232 N   0  0  0  0  0  0  0  0  0  0  0  0
   -8.0365  -10.4050   18.6718 C   0  0  0  0  0  0  0  0  0  0  0  0
   -6.9780  -10.8552   17.4213 C   0  0  0  0  0  0  0  0  0  0  0  0
   -9.0275  -12.1378   18.3213 C   0  0  0  0  0  0  0  0  0  0  0  0
   -8.1471  -13.1391   17.6661 C   0  0  0  0  0  0  0  0  0  0  0  0
   -8.4443  -15.0456   17.5987 C   0  0  0  0  0  0  0  0  0  0  0  0
   -9.1046  -15.0352   18.8415 C   0  0  0  0  0  0  0  0  0  0  0  0
   -9.2889  -13.2993   19.2644 O   0  0  0  0  0  0  0  0  0  0  0  0
   -9.3952   -6.7312   21.2277 C   0  0  0  0  0  0  0  0  0  0  0  0
   -9.9758   -5.3098   21.4416 C   0  0  0  0  0  0  0  0  0  0  0  0
   -8.8970   -4.4974   22.1444 C   0  0  0  0  0  0  0  0  0  0  0  0
   -8.1755   -5.5459   22.9503 C   0  0  0  0  0  0  0  0  0  0  0  0
   -8.2262   -6.7753   22.1384 N   0  0  0  0  0  0  0  0  0  0  0  0
   -7.7363   -6.0186   18.1957 H   0  0  0  0  0  0  0  0  0  0  0  0
   -7.7761   -5.3108   19.7753 H   0  0  0  0  0  0  0  0  0  0  0  0
   -9.1756   -5.1470   18.6958 H   0  0  0  0  0  0  0  0  0  0  0  0
  -10.0358   -7.1646   19.2008 H   0  0  0  0  0  0  0  0  0  0  0  0
   -7.7010   -8.6502   19.7644 H   0  0  0  0  0  0  0  0  0  0  0  0
   -8.0510   -9.6066   17.9064 H   0  0  0  0  0  0  0  0  0  0  0  0
   -6.2235  -11.6112   17.6913 H   0  0  0  0  0  0  0  0  0  0  0  0
   -7.6967  -11.2052   16.7245 H   0  0  0  0  0  0  0  0  0  0  0  0
   -6.4715  -10.0778   16.8088 H   0  0  0  0  0  0  0  0  0  0  0  0
  -10.0017  -11.9349   17.8641 H   0  0  0  0  0  0  0  0  0  0  0  0
   -7.8219  -12.9606   16.6704 H   0  0  0  0  0  0  0  0  0  0  0  0
   -7.4382  -12.8484   18.4715 H   0  0  0  0  0  0  0  0  0  0  0  0
   -7.8204  -15.6322   16.9085 H   0  0  0  0  0  0  0  0  0  0  0  0
   -9.2426  -15.6507   17.1420 H   0  0  0  0  0  0  0  0  0  0  0  0
   -8.6393  -15.6024   19.6768 H   0  0  0  0  0  0  0  0  0  0  0  0
  -10.0783  -15.5053   18.7341 H   0  0  0  0  0  0  0  0  0  0  0  0
  -10.1525   -7.4416   21.5848 H   0  0  0  0  0  0  0  0  0  0  0  0
  -10.8391   -5.3881   22.1165 H   0  0  0  0  0  0  0  0  0  0  0  0
  -10.3384   -4.8267   20.5316 H   0  0  0  0  0  0  0  0  0  0  0  0
   -8.2248   -4.0240   21.4224 H   0  0  0  0  0  0  0  0  0  0  0  0
   -9.3226   -3.7083   22.7716 H   0  0  0  0  0  0  0  0  0  0  0  0
   -7.1431   -5.2624   23.1735 H   0  0  0  0  0  0  0  0  0  0  0  0
   -8.6981   -5.7162   23.8990 H   0  0  0  0  0  0  0  0  0  0  0  0
   -8.3057   -7.5539   22.7974 H   0  0  0  0  0  0  0  0  0  0  0  0
  1  2  1  0
  2  3  1  0
  3  4  1  0
  4  5  1  0
  4  6  1  0
  6  7  1  0
  7  8  1  0
  8  9  1  0
  9 10  1  0
  2 11  1  0
 11 12  1  0
 12 13  1  0
 13 14  1  0
 14 15  1  0
 10  6  1  0
 15 11  1  0
  1 16  1  0
  1 17  1  0
  1 18  1  0
  2 19  1  0
  3 20  1  0
  4 21  1  0
  5 22  1  0
  5 23  1  0
  5 24  1  0
  6 25  1  0
  7 26  1  0
  7 27  1  0
  8 28  1  0
  8 29  1  0
  9 30  1  0
  9 31  1  0
 11 32  1  0
 12 33  1  0
 12 34  1  0
 13 35  1  0
 13 36  1  0
 14 37  1  0
 14 38  1  0
 15 39  1  0
M  END
>  <Energy>  (493) 
569.48697958577566

>  <compound_id>  (493) 
20413

>  <target_id>  (493) 
1

>  <reference_id>  (493) 
70

>  <inspiration_ids>  (493) 
[28, 70]

>  <energy_score>  (493) 
481.1225257504356

>  <distance_score>  (493) 
11.973339419285798

>  <path>  (493) 
/opt/xchem-fragalysis-2/maxwin/BulkDock/SCRATCH/511015/C20413-P70/C20413-P70.minimised.mol

>  <scratch_subdir>  (493) 
/opt/xchem-fragalysis-2/maxwin/BulkDock/SCRATCH/511015/C20413-P70

>  <fragmenstein_runtime>  (493) 
10.384860754013062

>  <fragmenstein_outcome>  (493) 
too moved

>  <fragmenstein_mode>  (493) 
expansion

>  <fragmenstein_error>  (493) 


$$$$
C20438-P28
     RDKit          3D

 35 36  0  0  0  0  0  0  0  0999 V2000
   -2.5508   -8.8280   20.1973 O   0  0  0  0  0  0  0  0  0  0  0  0
   -2.1974   -9.0342   19.0607 C   0  0  0  0  0  0  0  0  0  0  0  0
   -2.5456  -10.1246   18.1283 N   0  0  0  0  0  0  0  0  0  0  0  0
   -3.3810  -11.3977   18.3377 C   0  0  0  0  0  0  0  0  0  0  0  0
   -4.8806  -11.8952   17.9494 C   0  0  0  0  0  0  0  0  0  0  0  0
   -5.3805  -13.4111   17.1296 C   0  0  0  0  0  0  0  0  0  0  0  0
   -3.6990  -14.4585   16.8719 C   0  0  0  0  0  0  0  0  0  0  0  0
   -4.3242  -16.0807   16.7028 C   0  0  0  0  0  0  0  0  0  0  0  0
   -5.8284  -15.9908   16.7558 O   0  0  0  0  0  0  0  0  0  0  0  0
   -6.6509  -14.7446   16.7070 C   0  0  0  0  0  0  0  0  0  0  0  0
   -1.0888   -7.9879   18.5809 C   0  0  0  0  0  0  0  0  0  0  0  0
   -1.4734   -6.5026   18.6391 C   0  0  0  0  0  0  0  0  0  0  0  0
   -1.0895   -6.0030   20.0195 C   0  0  0  0  0  0  0  0  0  0  0  0
    0.2102   -6.7287   20.2352 C   0  0  0  0  0  0  0  0  0  0  0  0
    0.0396   -8.0521   19.6097 N   0  0  0  0  0  0  0  0  0  0  0  0
   -2.1250   -9.9317   17.2175 H   0  0  0  0  0  0  0  0  0  0  0  0
   -2.6752  -12.2311   18.3363 H   0  0  0  0  0  0  0  0  0  0  0  0
   -3.6430  -11.2199   19.3674 H   0  0  0  0  0  0  0  0  0  0  0  0
   -5.1681  -12.2229   18.9579 H   0  0  0  0  0  0  0  0  0  0  0  0
   -5.4390  -11.1216   17.4197 H   0  0  0  0  0  0  0  0  0  0  0  0
   -6.1194  -13.0689   17.8485 H   0  0  0  0  0  0  0  0  0  0  0  0
   -3.1951  -14.3545   15.9491 H   0  0  0  0  0  0  0  0  0  0  0  0
   -2.8073  -14.1963   17.4772 H   0  0  0  0  0  0  0  0  0  0  0  0
   -4.0636  -16.4371   15.7041 H   0  0  0  0  0  0  0  0  0  0  0  0
   -3.9801  -16.8618   17.3975 H   0  0  0  0  0  0  0  0  0  0  0  0
   -7.1408  -14.6560   15.7475 H   0  0  0  0  0  0  0  0  0  0  0  0
   -7.4664  -15.0611   17.3160 H   0  0  0  0  0  0  0  0  0  0  0  0
   -0.6636   -8.2981   17.6285 H   0  0  0  0  0  0  0  0  0  0  0  0
   -0.8628   -5.9553   17.9082 H   0  0  0  0  0  0  0  0  0  0  0  0
   -2.5142   -6.3032   18.4036 H   0  0  0  0  0  0  0  0  0  0  0  0
   -0.9764   -4.9156   20.0516 H   0  0  0  0  0  0  0  0  0  0  0  0
   -1.8252   -6.3003   20.7727 H   0  0  0  0  0  0  0  0  0  0  0  0
    1.0324   -6.2069   19.7324 H   0  0  0  0  0  0  0  0  0  0  0  0
    0.4674   -6.8167   21.2952 H   0  0  0  0  0  0  0  0  0  0  0  0
   -0.2929   -8.6911   20.3334 H   0  0  0  0  0  0  0  0  0  0  0  0
  1  2  2  0
  2  3  1  0
  3  4  1  0
  4  5  1  0
  5  6  1  0
  6  7  1  0
  7  8  1  0
  8  9  1  0
  9 10  1  0
  2 11  1  0
 11 12  1  0
 12 13  1  0
 13 14  1  0
 14 15  1  0
 10  6  1  0
 15 11  1  0
  3 16  1  0
  4 17  1  0
  4 18  1  0
  5 19  1  0
  5 20  1  0
  6 21  1  0
  7 22  1  0
  7 23  1  0
  8 24  1  0
  8 25  1  0
 10 26  1  0
 10 27  1  0
 11 28  1  0
 12 29  1  0
 12 30  1  0
 13 31  1  0
 13 32  1  0
 14 33  1  0
 14 34  1  0
 15 35  1  0
M  END
>  <Energy>  (494) 
317.25061845976489

>  <compound_id>  (494) 
20438

>  <target_id>  (494) 
1

>  <reference_id>  (494) 
28

>  <inspiration_ids>  (494) 
[28, 70]

>  <energy_score>  (494) 
261.95584793923865

>  <distance_score>  (494) 
11.98328486747607

>  <path>  (494) 
/opt/xchem-fragalysis-2/maxwin/BulkDock/SCRATCH/511015/C20438-P28/C20438-P28.minimised.mol

>  <scratch_subdir>  (494) 
/opt/xchem-fragalysis-2/maxwin/BulkDock/SCRATCH/511015/C20438-P28

>  <fragmenstein_runtime>  (494) 
16.78121066093445

>  <fragmenstein_outcome>  (494) 
too moved

>  <fragmenstein_mode>  (494) 
expansion

>  <fragmenstein_error>  (494) 


$$$$
C20438-P70
     RDKit          3D

 35 36  0  0  0  0  0  0  0  0999 V2000
   -6.9798   -7.8204   17.2490 O   0  0  0  0  0  0  0  0  0  0  0  0
   -7.8442   -8.0892   18.0905 C   0  0  0  0  0  0  0  0  0  0  0  0
   -8.3355   -9.6237   18.7038 N   0  0  0  0  0  0  0  0  0  0  0  0
   -7.8071  -11.4747   18.2050 C   0  0  0  0  0  0  0  0  0  0  0  0
   -8.6810  -13.2184   18.7367 C   0  0  0  0  0  0  0  0  0  0  0  0
   -9.0759  -15.2368   18.5838 C   0  0  0  0  0  0  0  0  0  0  0  0
  -10.1335  -16.6132   19.0736 C   0  0  0  0  0  0  0  0  0  0  0  0
   -9.3820  -17.8942   18.9637 C   0  0  0  0  0  0  0  0  0  0  0  0
   -8.9880  -17.6900   17.6228 O   0  0  0  0  0  0  0  0  0  0  0  0
   -8.3892  -16.3716   17.6395 C   0  0  0  0  0  0  0  0  0  0  0  0
   -8.6184   -6.5271   18.8825 C   0  0  0  0  0  0  0  0  0  0  0  0
   -8.2079   -5.1752   18.1338 C   0  0  0  0  0  0  0  0  0  0  0  0
   -8.1137   -4.0369   19.1401 C   0  0  0  0  0  0  0  0  0  0  0  0
   -7.6472   -4.7280   20.3758 C   0  0  0  0  0  0  0  0  0  0  0  0
   -8.3214   -6.0066   20.2741 N   0  0  0  0  0  0  0  0  0  0  0  0
   -9.0699   -9.5118   19.2743 H   0  0  0  0  0  0  0  0  0  0  0  0
   -6.7767  -11.7676   18.3141 H   0  0  0  0  0  0  0  0  0  0  0  0
   -7.8775  -11.5382   17.1255 H   0  0  0  0  0  0  0  0  0  0  0  0
   -9.6841  -12.8210   18.6322 H   0  0  0  0  0  0  0  0  0  0  0  0
   -8.2311  -13.3808   17.7611 H   0  0  0  0  0  0  0  0  0  0  0  0
  -10.0630  -14.9339   18.3969 H   0  0  0  0  0  0  0  0  0  0  0  0
  -10.8509  -16.8229   18.2707 H   0  0  0  0  0  0  0  0  0  0  0  0
  -10.8598  -16.5693   19.8762 H   0  0  0  0  0  0  0  0  0  0  0  0
  -10.0169  -18.7800   19.0368 H   0  0  0  0  0  0  0  0  0  0  0  0
   -8.5352  -17.9811   19.6519 H   0  0  0  0  0  0  0  0  0  0  0  0
   -7.5262  -16.7610   18.1803 H   0  0  0  0  0  0  0  0  0  0  0  0
   -8.1720  -16.0785   16.6206 H   0  0  0  0  0  0  0  0  0  0  0  0
   -9.6992   -6.6476   18.8194 H   0  0  0  0  0  0  0  0  0  0  0  0
   -8.9473   -4.8850   17.3769 H   0  0  0  0  0  0  0  0  0  0  0  0
   -7.2480   -5.3003   17.6232 H   0  0  0  0  0  0  0  0  0  0  0  0
   -7.4339   -3.2466   18.8088 H   0  0  0  0  0  0  0  0  0  0  0  0
   -9.1056   -3.5937   19.2930 H   0  0  0  0  0  0  0  0  0  0  0  0
   -6.5601   -4.8202   20.3855 H   0  0  0  0  0  0  0  0  0  0  0  0
   -7.9464   -4.1899   21.2800 H   0  0  0  0  0  0  0  0  0  0  0  0
   -8.0953   -6.6869   20.9891 H   0  0  0  0  0  0  0  0  0  0  0  0
  1  2  2  0
  2  3  1  0
  3  4  1  0
  4  5  1  0
  5  6  1  0
  6  7  1  0
  7  8  1  0
  8  9  1  0
  9 10  1  0
  2 11  1  0
 11 12  1  0
 12 13  1  0
 13 14  1  0
 14 15  1  0
 10  6  1  0
 15 11  1  0
  3 16  1  0
  4 17  1  0
  4 18  1  0
  5 19  1  0
  5 20  1  0
  6 21  1  0
  7 22  1  0
  7 23  1  0
  8 24  1  0
  8 25  1  0
 10 26  1  0
 10 27  1  0
 11 28  1  0
 12 29  1  0
 12 30  1  0
 13 31  1  0
 13 32  1  0
 14 33  1  0
 14 34  1  0
 15 35  1  0
M  END
>  <Energy>  (495) 
510.69996576851315

>  <compound_id>  (495) 
20438

>  <target_id>  (495) 
1

>  <reference_id>  (495) 
70

>  <inspiration_ids>  (495) 
[28, 70]

>  <energy_score>  (495) 
455.40519524797855

>  <distance_score>  (495) 
11.724457839651944

>  <path>  (495) 
/opt/xchem-fragalysis-2/maxwin/BulkDock/SCRATCH/511015/C20438-P70/C20438-P70.minimised.mol

>  <scratch_subdir>  (495) 
/opt/xchem-fragalysis-2/maxwin/BulkDock/SCRATCH/511015/C20438-P70

>  <fragmenstein_runtime>  (495) 
12.627627849578857

>  <fragmenstein_outcome>  (495) 
too moved

>  <fragmenstein_mode>  (495) 
expansion

>  <fragmenstein_error>  (495) 


$$$$
C20440-P28
     RDKit          3D

 41 43  0  0  0  0  0  0  0  0999 V2000
  -11.1743   -8.4195   20.6333 O   0  0  0  0  0  0  0  0  0  0  0  0
  -10.1446   -7.8277   20.4721 C   0  0  0  0  0  0  0  0  0  0  0  0
   -8.9026   -8.2323   19.7857 N   0  0  0  0  0  0  0  0  0  0  0  0
   -8.4334   -9.7456   19.0623 C   0  0  0  0  0  0  0  0  0  0  0  0
   -8.0787  -11.7328   18.7075 C   0  0  0  0  0  0  0  0  0  0  0  0
   -8.2042  -12.4523   16.9912 C   0  0  0  0  0  0  0  0  0  0  0  0
   -7.2291  -13.9743   16.5937 C   0  0  0  0  0  0  0  0  0  0  0  0
   -7.9954  -14.5011   14.9442 C   0  0  0  0  0  0  0  0  0  0  0  0
   -8.8656  -13.4704   14.2911 O   0  0  0  0  0  0  0  0  0  0  0  0
   -9.0426  -12.2436   15.2145 C   0  0  0  0  0  0  0  0  0  0  0  0
   -9.9140   -6.4516   21.1213 C   0  0  0  0  0  0  0  0  0  0  0  0
   -9.1357   -5.3948   20.6702 C   0  0  0  0  0  0  0  0  0  0  0  0
   -9.0218   -4.4473   21.6496 O   0  0  0  0  0  0  0  0  0  0  0  0
   -9.7592   -4.9406   22.6983 C   0  0  0  0  0  0  0  0  0  0  0  0
   -9.9825   -4.0239   23.8852 C   0  0  0  0  0  0  0  0  0  0  0  0
   -9.0932   -2.7952   23.9241 C   0  0  0  0  0  0  0  0  0  0  0  0
   -9.2831   -2.2473   25.3314 C   0  0  0  0  0  0  0  0  0  0  0  0
   -9.6870   -3.4672   26.1516 C   0  0  0  0  0  0  0  0  0  0  0  0
   -9.6719   -4.5985   25.2116 N   0  0  0  0  0  0  0  0  0  0  0  0
  -10.2889   -6.1317   22.4395 N   0  0  0  0  0  0  0  0  0  0  0  0
   -8.2785   -7.4668   19.7691 H   0  0  0  0  0  0  0  0  0  0  0  0
   -8.0616   -9.1915   18.1991 H   0  0  0  0  0  0  0  0  0  0  0  0
   -9.5228  -10.0117   19.1671 H   0  0  0  0  0  0  0  0  0  0  0  0
   -8.9834  -12.2720   19.0578 H   0  0  0  0  0  0  0  0  0  0  0  0
   -7.1406  -12.1224   19.0886 H   0  0  0  0  0  0  0  0  0  0  0  0
   -7.6602  -11.5209   16.8515 H   0  0  0  0  0  0  0  0  0  0  0  0
   -7.2710  -14.9825   17.0420 H   0  0  0  0  0  0  0  0  0  0  0  0
   -6.2042  -13.7685   16.8555 H   0  0  0  0  0  0  0  0  0  0  0  0
   -7.6291  -15.5414   14.8866 H   0  0  0  0  0  0  0  0  0  0  0  0
   -8.9511  -14.9329   14.9111 H   0  0  0  0  0  0  0  0  0  0  0  0
  -10.1458  -12.1455   15.1956 H   0  0  0  0  0  0  0  0  0  0  0  0
   -8.6571  -11.3758   14.6619 H   0  0  0  0  0  0  0  0  0  0  0  0
   -8.6046   -5.1807   19.7542 H   0  0  0  0  0  0  0  0  0  0  0  0
  -11.0380   -3.7195   23.8653 H   0  0  0  0  0  0  0  0  0  0  0  0
   -9.3530   -2.0579   23.1582 H   0  0  0  0  0  0  0  0  0  0  0  0
   -8.0550   -3.1062   23.7808 H   0  0  0  0  0  0  0  0  0  0  0  0
  -10.0953   -1.5108   25.3388 H   0  0  0  0  0  0  0  0  0  0  0  0
   -8.3844   -1.7502   25.7055 H   0  0  0  0  0  0  0  0  0  0  0  0
   -9.0097   -3.6451   26.9912 H   0  0  0  0  0  0  0  0  0  0  0  0
  -10.6950   -3.3285   26.5593 H   0  0  0  0  0  0  0  0  0  0  0  0
  -10.3779   -5.2935   25.4529 H   0  0  0  0  0  0  0  0  0  0  0  0
  1  2  2  0
  2  3  1  0
  3  4  1  0
  4  5  1  0
  5  6  1  0
  6  7  1  0
  7  8  1  0
  8  9  1  0
  9 10  1  0
  2 11  1  0
 11 12  2  0
 12 13  1  0
 13 14  1  0
 14 15  1  0
 15 16  1  0
 16 17  1  0
 17 18  1  0
 18 19  1  0
 14 20  2  0
 10  6  1  0
 20 11  1  0
 19 15  1  0
  3 21  1  0
  4 22  1  0
  4 23  1  0
  5 24  1  0
  5 25  1  0
  6 26  1  0
  7 27  1  0
  7 28  1  0
  8 29  1  0
  8 30  1  0
 10 31  1  0
 10 32  1  0
 12 33  1  0
 15 34  1  0
 16 35  1  0
 16 36  1  0
 17 37  1  0
 17 38  1  0
 18 39  1  0
 18 40  1  0
 19 41  1  0
M  END
>  <Energy>  (496) 
467.50282381763014

>  <compound_id>  (496) 
20440

>  <target_id>  (496) 
1

>  <reference_id>  (496) 
28

>  <inspiration_ids>  (496) 
[28, 70]

>  <energy_score>  (496) 
376.4916087826395

>  <distance_score>  (496) 
11.80229710977136

>  <path>  (496) 
/opt/xchem-fragalysis-2/maxwin/BulkDock/SCRATCH/511015/C20440-P28/C20440-P28.minimised.mol

>  <scratch_subdir>  (496) 
/opt/xchem-fragalysis-2/maxwin/BulkDock/SCRATCH/511015/C20440-P28

>  <fragmenstein_runtime>  (496) 
22.206093788146973

>  <fragmenstein_outcome>  (496) 
too moved

>  <fragmenstein_mode>  (496) 
expansion

>  <fragmenstein_error>  (496) 


$$$$
C20440-P70
     RDKit          3D

 41 43  0  0  0  0  0  0  0  0999 V2000
   -4.2895   -9.7399   22.5856 O   0  0  0  0  0  0  0  0  0  0  0  0
   -5.0810  -10.1778   23.3959 C   0  0  0  0  0  0  0  0  0  0  0  0
   -6.2860  -11.1642   23.2060 N   0  0  0  0  0  0  0  0  0  0  0  0
   -6.8427  -12.0862   21.7534 C   0  0  0  0  0  0  0  0  0  0  0  0
   -7.1868  -12.6015   19.7143 C   0  0  0  0  0  0  0  0  0  0  0  0
   -8.9182  -13.5098   19.4473 C   0  0  0  0  0  0  0  0  0  0  0  0
   -9.2261  -15.1264   19.1934 C   0  0  0  0  0  0  0  0  0  0  0  0
  -10.7116  -15.3713   19.3731 C   0  0  0  0  0  0  0  0  0  0  0  0
  -11.2308  -14.1360   19.8390 O   0  0  0  0  0  0  0  0  0  0  0  0
  -10.1219  -13.4755   20.4845 C   0  0  0  0  0  0  0  0  0  0  0  0
   -4.7081   -9.7192   24.7741 C   0  0  0  0  0  0  0  0  0  0  0  0
   -5.3961   -9.3001   25.8905 C   0  0  0  0  0  0  0  0  0  0  0  0
   -4.4974   -8.7490   26.8009 O   0  0  0  0  0  0  0  0  0  0  0  0
   -3.2669   -8.8611   26.1889 C   0  0  0  0  0  0  0  0  0  0  0  0
   -1.9810   -8.4271   26.8551 C   0  0  0  0  0  0  0  0  0  0  0  0
   -1.9457   -8.4158   28.3674 C   0  0  0  0  0  0  0  0  0  0  0  0
   -0.7069   -7.5824   28.6769 C   0  0  0  0  0  0  0  0  0  0  0  0
   -0.5146   -6.6718   27.4723 C   0  0  0  0  0  0  0  0  0  0  0  0
   -1.5158   -7.0749   26.4814 N   0  0  0  0  0  0  0  0  0  0  0  0
   -3.3523   -9.4046   24.9987 N   0  0  0  0  0  0  0  0  0  0  0  0
   -6.6850  -11.3831   24.1068 H   0  0  0  0  0  0  0  0  0  0  0  0
   -7.8546  -12.0646   22.2376 H   0  0  0  0  0  0  0  0  0  0  0  0
   -6.2683  -12.8666   22.2300 H   0  0  0  0  0  0  0  0  0  0  0  0
   -7.4110  -11.7627   18.9730 H   0  0  0  0  0  0  0  0  0  0  0  0
   -6.3658  -12.6494   18.9816 H   0  0  0  0  0  0  0  0  0  0  0  0
   -9.2907  -12.8763   18.6398 H   0  0  0  0  0  0  0  0  0  0  0  0
   -8.7370  -15.7479   19.9579 H   0  0  0  0  0  0  0  0  0  0  0  0
   -8.9154  -15.5269   18.2227 H   0  0  0  0  0  0  0  0  0  0  0  0
  -11.2258  -15.6767   18.4655 H   0  0  0  0  0  0  0  0  0  0  0  0
  -10.8972  -16.1434   20.1285 H   0  0  0  0  0  0  0  0  0  0  0  0
  -10.4678  -12.5274   20.8428 H   0  0  0  0  0  0  0  0  0  0  0  0
   -9.9778  -14.0451   21.4013 H   0  0  0  0  0  0  0  0  0  0  0  0
   -6.4351   -9.2584   26.1792 H   0  0  0  0  0  0  0  0  0  0  0  0
   -1.2116   -9.1364   26.5140 H   0  0  0  0  0  0  0  0  0  0  0  0
   -1.8574   -9.4258   28.7828 H   0  0  0  0  0  0  0  0  0  0  0  0
   -2.8404   -7.9735   28.8070 H   0  0  0  0  0  0  0  0  0  0  0  0
    0.1614   -8.2456   28.7763 H   0  0  0  0  0  0  0  0  0  0  0  0
   -0.8047   -7.0321   29.6163 H   0  0  0  0  0  0  0  0  0  0  0  0
    0.4969   -6.7865   27.0673 H   0  0  0  0  0  0  0  0  0  0  0  0
   -0.6483   -5.6207   27.7425 H   0  0  0  0  0  0  0  0  0  0  0  0
   -1.1109   -7.1245   25.5454 H   0  0  0  0  0  0  0  0  0  0  0  0
  1  2  2  0
  2  3  1  0
  3  4  1  0
  4  5  1  0
  5  6  1  0
  6  7  1  0
  7  8  1  0
  8  9  1  0
  9 10  1  0
  2 11  1  0
 11 12  2  0
 12 13  1  0
 13 14  1  0
 14 15  1  0
 15 16  1  0
 16 17  1  0
 17 18  1  0
 18 19  1  0
 14 20  2  0
 10  6  1  0
 20 11  1  0
 19 15  1  0
  3 21  1  0
  4 22  1  0
  4 23  1  0
  5 24  1  0
  5 25  1  0
  6 26  1  0
  7 27  1  0
  7 28  1  0
  8 29  1  0
  8 30  1  0
 10 31  1  0
 10 32  1  0
 12 33  1  0
 15 34  1  0
 16 35  1  0
 16 36  1  0
 17 37  1  0
 17 38  1  0
 18 39  1  0
 18 40  1  0
 19 41  1  0
M  END
>  <Energy>  (497) 
370.93608942845435

>  <compound_id>  (497) 
20440

>  <target_id>  (497) 
1

>  <reference_id>  (497) 
70

>  <inspiration_ids>  (497) 
[28, 70]

>  <energy_score>  (497) 
279.9248743934643

>  <distance_score>  (497) 
11.395527923443877

>  <path>  (497) 
/opt/xchem-fragalysis-2/maxwin/BulkDock/SCRATCH/511015/C20440-P70/C20440-P70.minimised.mol

>  <scratch_subdir>  (497) 
/opt/xchem-fragalysis-2/maxwin/BulkDock/SCRATCH/511015/C20440-P70

>  <fragmenstein_runtime>  (497) 
15.8194420337677

>  <fragmenstein_outcome>  (497) 
too moved

>  <fragmenstein_mode>  (497) 
expansion

>  <fragmenstein_error>  (497) 


$$$$
C20443-P28
     RDKit          3D

 44 46  0  0  0  0  0  0  0  0999 V2000
   -5.4771  -12.5781   17.7462 O   0  0  0  0  0  0  0  0  0  0  0  0
   -6.6055  -12.9256   17.7478 C   0  0  0  0  0  0  0  0  0  0  0  0
   -7.7507  -12.2935   18.3212 N   0  0  0  0  0  0  0  0  0  0  0  0
   -7.9115  -10.8870   19.0441 C   0  0  0  0  0  0  0  0  0  0  0  0
   -8.2925   -8.9316   19.0258 C   0  0  0  0  0  0  0  0  0  0  0  0
   -9.3215   -7.6252   19.8198 C   0  0  0  0  0  0  0  0  0  0  0  0
   -8.8972   -6.2409   20.5506 C   0  0  0  0  0  0  0  0  0  0  0  0
   -8.3435   -6.1891   21.9852 C   0  0  0  0  0  0  0  0  0  0  0  0
   -7.5796   -4.8662   22.0966 C   0  0  0  0  0  0  0  0  0  0  0  0
   -7.8414   -4.1523   20.7859 C   0  0  0  0  0  0  0  0  0  0  0  0
   -8.1422   -5.2137   19.8112 N   0  0  0  0  0  0  0  0  0  0  0  0
   -6.7901  -14.5792   16.7146 C   0  0  0  0  0  0  0  0  0  0  0  0
   -5.9373  -15.8714   16.7556 C   0  0  0  0  0  0  0  0  0  0  0  0
   -5.0128  -16.3574   15.4989 N   0  0  0  0  0  0  0  0  0  0  0  0
   -5.6921  -16.4873   14.3130 C   0  0  0  0  0  0  0  0  0  0  0  0
   -5.0093  -16.6252   12.9369 C   0  0  0  0  0  0  0  0  0  0  0  0
   -5.2082  -17.9057   12.1478 C   0  0  0  0  0  0  0  0  0  0  0  0
   -3.8583  -18.2651   11.5491 C   0  0  0  0  0  0  0  0  0  0  0  0
   -3.0018  -17.1547   11.8018 O   0  0  0  0  0  0  0  0  0  0  0  0
   -3.4726  -16.5944   13.0353 C   0  0  0  0  0  0  0  0  0  0  0  0
   -7.5864  -15.5831   15.0084 S   0  0  0  0  0  0  0  0  0  0  0  0
   -8.5332  -12.8908   18.2131 H   0  0  0  0  0  0  0  0  0  0  0  0
   -9.0123  -11.1945   19.1976 H   0  0  0  0  0  0  0  0  0  0  0  0
   -7.3776  -10.7308   18.0856 H   0  0  0  0  0  0  0  0  0  0  0  0
   -7.8654   -8.4683   18.1259 H   0  0  0  0  0  0  0  0  0  0  0  0
   -7.5719   -8.7009   19.7009 H   0  0  0  0  0  0  0  0  0  0  0  0
   -9.9165   -7.1744   19.0111 H   0  0  0  0  0  0  0  0  0  0  0  0
  -10.0810   -8.1378   20.4277 H   0  0  0  0  0  0  0  0  0  0  0  0
   -9.8910   -5.7721   20.6584 H   0  0  0  0  0  0  0  0  0  0  0  0
   -9.1681   -6.2108   22.7076 H   0  0  0  0  0  0  0  0  0  0  0  0
   -7.6779   -7.0074   22.2462 H   0  0  0  0  0  0  0  0  0  0  0  0
   -6.5084   -5.0613   22.2187 H   0  0  0  0  0  0  0  0  0  0  0  0
   -7.9119   -4.2772   22.9571 H   0  0  0  0  0  0  0  0  0  0  0  0
   -8.7101   -3.4902   20.8767 H   0  0  0  0  0  0  0  0  0  0  0  0
   -6.9894   -3.5440   20.4672 H   0  0  0  0  0  0  0  0  0  0  0  0
   -7.2748   -5.5814   19.4350 H   0  0  0  0  0  0  0  0  0  0  0  0
   -5.2202  -16.1042   17.5342 H   0  0  0  0  0  0  0  0  0  0  0  0
   -5.2189  -15.7722   12.2941 H   0  0  0  0  0  0  0  0  0  0  0  0
   -5.8883  -17.7307   11.3174 H   0  0  0  0  0  0  0  0  0  0  0  0
   -5.6169  -18.7314   12.7173 H   0  0  0  0  0  0  0  0  0  0  0  0
   -3.4311  -19.1612   12.0073 H   0  0  0  0  0  0  0  0  0  0  0  0
   -3.9175  -18.4355   10.4698 H   0  0  0  0  0  0  0  0  0  0  0  0
   -3.0725  -15.5817   13.1035 H   0  0  0  0  0  0  0  0  0  0  0  0
   -3.0682  -17.1720   13.8704 H   0  0  0  0  0  0  0  0  0  0  0  0
  1  2  2  0
  2  3  1  0
  3  4  1  0
  4  5  1  0
  5  6  1  0
  6  7  1  0
  7  8  1  0
  8  9  1  0
  9 10  1  0
 10 11  1  0
  2 12  1  0
 12 13  2  0
 13 14  1  0
 14 15  2  0
 15 16  1  0
 16 17  1  0
 17 18  1  0
 18 19  1  0
 19 20  1  0
 15 21  1  0
 11  7  1  0
 21 12  1  0
 20 16  1  0
  3 22  1  0
  4 23  1  0
  4 24  1  0
  5 25  1  0
  5 26  1  0
  6 27  1  0
  6 28  1  0
  7 29  1  0
  8 30  1  0
  8 31  1  0
  9 32  1  0
  9 33  1  0
 10 34  1  0
 10 35  1  0
 11 36  1  0
 13 37  1  0
 16 38  1  0
 17 39  1  0
 17 40  1  0
 18 41  1  0
 18 42  1  0
 20 43  1  0
 20 44  1  0
M  END
>  <Energy>  (498) 
471.10278769908609

>  <compound_id>  (498) 
20443

>  <target_id>  (498) 
1

>  <reference_id>  (498) 
28

>  <inspiration_ids>  (498) 
[28, 70]

>  <energy_score>  (498) 
426.4640063716653

>  <distance_score>  (498) 
12.241877583359956

>  <path>  (498) 
/opt/xchem-fragalysis-2/maxwin/BulkDock/SCRATCH/511015/C20443-P28/C20443-P28.minimised.mol

>  <scratch_subdir>  (498) 
/opt/xchem-fragalysis-2/maxwin/BulkDock/SCRATCH/511015/C20443-P28

>  <fragmenstein_runtime>  (498) 
37.282968521118164

>  <fragmenstein_outcome>  (498) 
too moved

>  <fragmenstein_mode>  (498) 
expansion

>  <fragmenstein_error>  (498) 


$$$$
C20443-P70
     RDKit          3D

 44 46  0  0  0  0  0  0  0  0999 V2000
  -12.5209  -13.4594   22.0425 O   0  0  0  0  0  0  0  0  0  0  0  0
  -11.3939  -13.3812   21.6285 C   0  0  0  0  0  0  0  0  0  0  0  0
  -10.1914  -12.6678   22.1991 N   0  0  0  0  0  0  0  0  0  0  0  0
  -10.0047  -11.9082   23.5356 C   0  0  0  0  0  0  0  0  0  0  0  0
   -9.5797  -10.3196   23.8390 C   0  0  0  0  0  0  0  0  0  0  0  0
   -8.1476   -9.8990   24.3477 C   0  0  0  0  0  0  0  0  0  0  0  0
   -7.8802   -8.3463   24.4255 C   0  0  0  0  0  0  0  0  0  0  0  0
   -8.5655   -7.6011   25.5685 C   0  0  0  0  0  0  0  0  0  0  0  0
   -7.7648   -6.3088   25.7276 C   0  0  0  0  0  0  0  0  0  0  0  0
   -6.4195   -6.6000   25.0855 C   0  0  0  0  0  0  0  0  0  0  0  0
   -6.4603   -8.0118   24.6807 N   0  0  0  0  0  0  0  0  0  0  0  0
  -11.1390  -14.2584   20.3454 C   0  0  0  0  0  0  0  0  0  0  0  0
  -10.0598  -14.5422   19.6090 C   0  0  0  0  0  0  0  0  0  0  0  0
  -10.1904  -15.6800   18.7614 N   0  0  0  0  0  0  0  0  0  0  0  0
  -11.3270  -16.8329   18.2580 C   0  0  0  0  0  0  0  0  0  0  0  0
  -10.0729  -17.9405   16.9296 C   0  0  0  0  0  0  0  0  0  0  0  0
   -8.3669  -17.1003   16.9014 C   0  0  0  0  0  0  0  0  0  0  0  0
   -7.2209  -18.2056   17.7184 C   0  0  0  0  0  0  0  0  0  0  0  0
   -7.7722  -19.5685   17.4650 O   0  0  0  0  0  0  0  0  0  0  0  0
   -9.2697  -19.7128   17.2096 C   0  0  0  0  0  0  0  0  0  0  0  0
  -12.3757  -15.0954   19.4320 S   0  0  0  0  0  0  0  0  0  0  0  0
   -9.3765  -12.8810   21.6311 H   0  0  0  0  0  0  0  0  0  0  0  0
   -9.2930  -12.5247   24.0968 H   0  0  0  0  0  0  0  0  0  0  0  0
  -10.9795  -12.0330   24.0238 H   0  0  0  0  0  0  0  0  0  0  0  0
  -10.2413  -10.0487   24.6763 H   0  0  0  0  0  0  0  0  0  0  0  0
   -9.8701   -9.6303   23.0622 H   0  0  0  0  0  0  0  0  0  0  0  0
   -7.9934  -10.3409   25.3404 H   0  0  0  0  0  0  0  0  0  0  0  0
   -7.4112  -10.3717   23.6926 H   0  0  0  0  0  0  0  0  0  0  0  0
   -8.1718   -7.8926   23.4707 H   0  0  0  0  0  0  0  0  0  0  0  0
   -8.5137   -8.1825   26.4976 H   0  0  0  0  0  0  0  0  0  0  0  0
   -9.6205   -7.4000   25.3572 H   0  0  0  0  0  0  0  0  0  0  0  0
   -7.6690   -6.0379   26.7839 H   0  0  0  0  0  0  0  0  0  0  0  0
   -8.2644   -5.4840   25.2074 H   0  0  0  0  0  0  0  0  0  0  0  0
   -5.5881   -6.4136   25.7726 H   0  0  0  0  0  0  0  0  0  0  0  0
   -6.2704   -5.9684   24.2028 H   0  0  0  0  0  0  0  0  0  0  0  0
   -6.1204   -8.5894   25.4514 H   0  0  0  0  0  0  0  0  0  0  0  0
   -9.1119  -14.0497   19.6620 H   0  0  0  0  0  0  0  0  0  0  0  0
  -10.2556  -18.1171   15.8243 H   0  0  0  0  0  0  0  0  0  0  0  0
   -8.3102  -16.8580   15.8710 H   0  0  0  0  0  0  0  0  0  0  0  0
   -8.3762  -16.1178   17.3720 H   0  0  0  0  0  0  0  0  0  0  0  0
   -7.1429  -18.0912   18.8086 H   0  0  0  0  0  0  0  0  0  0  0  0
   -6.1316  -18.2088   17.5739 H   0  0  0  0  0  0  0  0  0  0  0  0
   -9.4918  -20.1424   18.1922 H   0  0  0  0  0  0  0  0  0  0  0  0
   -9.3762  -20.4129   16.4100 H   0  0  0  0  0  0  0  0  0  0  0  0
  1  2  2  0
  2  3  1  0
  3  4  1  0
  4  5  1  0
  5  6  1  0
  6  7  1  0
  7  8  1  0
  8  9  1  0
  9 10  1  0
 10 11  1  0
  2 12  1  0
 12 13  2  0
 13 14  1  0
 14 15  2  0
 15 16  1  0
 16 17  1  0
 17 18  1  0
 18 19  1  0
 19 20  1  0
 15 21  1  0
 11  7  1  0
 21 12  1  0
 20 16  1  0
  3 22  1  0
  4 23  1  0
  4 24  1  0
  5 25  1  0
  5 26  1  0
  6 27  1  0
  6 28  1  0
  7 29  1  0
  8 30  1  0
  8 31  1  0
  9 32  1  0
  9 33  1  0
 10 34  1  0
 10 35  1  0
 11 36  1  0
 13 37  1  0
 16 38  1  0
 17 39  1  0
 17 40  1  0
 18 41  1  0
 18 42  1  0
 20 43  1  0
 20 44  1  0
M  END
>  <Energy>  (499) 
543.98767609026959

>  <compound_id>  (499) 
20443

>  <target_id>  (499) 
1

>  <reference_id>  (499) 
70

>  <inspiration_ids>  (499) 
[28, 70]

>  <energy_score>  (499) 
499.3488947628588

>  <distance_score>  (499) 
12.830343800086249

>  <path>  (499) 
/opt/xchem-fragalysis-2/maxwin/BulkDock/SCRATCH/511015/C20443-P70/C20443-P70.minimised.mol

>  <scratch_subdir>  (499) 
/opt/xchem-fragalysis-2/maxwin/BulkDock/SCRATCH/511015/C20443-P70

>  <fragmenstein_runtime>  (499) 
32.82743549346924

>  <fragmenstein_outcome>  (499) 
too moved

>  <fragmenstein_mode>  (499) 
expansion

>  <fragmenstein_error>  (499) 


$$$$
C20451-P28
     RDKit          3D

 43 45  0  0  0  0  0  0  0  0999 V2000
  -13.7825  -14.5390   12.0703 C   0  0  0  0  0  0  0  0  0  0  0  0
  -12.4521  -14.5200   11.6643 C   0  0  0  0  0  0  0  0  0  0  0  0
  -11.4302  -14.2841   12.6045 C   0  0  0  0  0  0  0  0  0  0  0  0
  -11.7011  -14.0031   14.0102 C   0  0  0  0  0  0  0  0  0  0  0  0
  -10.4815  -12.8353   15.1213 C   0  0  0  0  0  0  0  0  0  0  0  0
  -10.8456  -11.9982   17.0206 C   0  0  0  0  0  0  0  0  0  0  0  0
  -10.3642  -10.7922   18.4804 N   0  0  0  0  0  0  0  0  0  0  0  0
   -8.8375   -9.6614   19.0875 C   0  0  0  0  0  0  0  0  0  0  0  0
   -8.5222   -8.0405   19.8586 C   0  0  0  0  0  0  0  0  0  0  0  0
   -9.3933   -7.3495   20.9147 C   0  0  0  0  0  0  0  0  0  0  0  0
   -8.7310   -5.9780   21.1189 C   0  0  0  0  0  0  0  0  0  0  0  0
   -7.8926   -5.7589   19.8690 C   0  0  0  0  0  0  0  0  0  0  0  0
   -8.2440   -6.8773   18.9793 N   0  0  0  0  0  0  0  0  0  0  0  0
   -9.5739  -11.5032   14.3816 C   0  0  0  0  0  0  0  0  0  0  0  0
   -9.0268  -11.8537   13.0352 C   0  0  0  0  0  0  0  0  0  0  0  0
   -8.7367  -13.2080   13.1718 O   0  0  0  0  0  0  0  0  0  0  0  0
   -9.2954  -13.7566   14.3902 C   0  0  0  0  0  0  0  0  0  0  0  0
  -13.0740  -14.2588   14.3929 C   0  0  0  0  0  0  0  0  0  0  0  0
  -14.0883  -14.4686   13.4317 C   0  0  0  0  0  0  0  0  0  0  0  0
  -14.5723  -14.6735   11.3361 H   0  0  0  0  0  0  0  0  0  0  0  0
  -12.2019  -14.6348   10.6117 H   0  0  0  0  0  0  0  0  0  0  0  0
  -10.4544  -14.1470   12.1666 H   0  0  0  0  0  0  0  0  0  0  0  0
  -10.7448  -12.7450   17.7730 H   0  0  0  0  0  0  0  0  0  0  0  0
  -11.8411  -11.5725   16.9414 H   0  0  0  0  0  0  0  0  0  0  0  0
  -11.1776  -10.2510   18.6590 H   0  0  0  0  0  0  0  0  0  0  0  0
   -8.1428  -10.4489   19.2890 H   0  0  0  0  0  0  0  0  0  0  0  0
   -8.1430   -9.2924   18.2759 H   0  0  0  0  0  0  0  0  0  0  0  0
   -7.5421   -8.2090   20.3264 H   0  0  0  0  0  0  0  0  0  0  0  0
  -10.4160   -7.2063   20.5447 H   0  0  0  0  0  0  0  0  0  0  0  0
   -9.4353   -7.8819   21.8683 H   0  0  0  0  0  0  0  0  0  0  0  0
   -9.4902   -5.1999   21.2485 H   0  0  0  0  0  0  0  0  0  0  0  0
   -8.0934   -5.9871   22.0099 H   0  0  0  0  0  0  0  0  0  0  0  0
   -8.1104   -4.7989   19.3921 H   0  0  0  0  0  0  0  0  0  0  0  0
   -6.8247   -5.7879   20.1135 H   0  0  0  0  0  0  0  0  0  0  0  0
   -7.4799   -7.0744   18.3329 H   0  0  0  0  0  0  0  0  0  0  0  0
  -10.0876  -10.5367   14.3662 H   0  0  0  0  0  0  0  0  0  0  0  0
   -8.6964  -11.3860   14.9889 H   0  0  0  0  0  0  0  0  0  0  0  0
   -9.7239  -11.6960   12.2066 H   0  0  0  0  0  0  0  0  0  0  0  0
   -8.1157  -11.2953   12.7993 H   0  0  0  0  0  0  0  0  0  0  0  0
   -9.7041  -14.7168   14.1000 H   0  0  0  0  0  0  0  0  0  0  0  0
   -8.4695  -14.1771   14.9189 H   0  0  0  0  0  0  0  0  0  0  0  0
  -13.4521  -14.0198   15.3685 H   0  0  0  0  0  0  0  0  0  0  0  0
  -15.1273  -14.5110   13.7507 H   0  0  0  0  0  0  0  0  0  0  0  0
  1  2  2  0
  2  3  1  0
  3  4  2  0
  4  5  1  0
  5  6  1  0
  6  7  1  0
  7  8  1  0
  8  9  1  0
  9 10  1  0
 10 11  1  0
 11 12  1  0
 12 13  1  0
  5 14  1  0
 14 15  1  0
 15 16  1  0
 16 17  1  0
  4 18  1  0
 18 19  2  0
 19  1  1  0
 17  5  1  0
 13  9  1  0
  1 20  1  0
  2 21  1  0
  3 22  1  0
  6 23  1  0
  6 24  1  0
  7 25  1  0
  8 26  1  0
  8 27  1  0
  9 28  1  0
 10 29  1  0
 10 30  1  0
 11 31  1  0
 11 32  1  0
 12 33  1  0
 12 34  1  0
 13 35  1  0
 14 36  1  0
 14 37  1  0
 15 38  1  0
 15 39  1  0
 17 40  1  0
 17 41  1  0
 18 42  1  0
 19 43  1  0
M  END
>  <Energy>  (500) 
580.62863312958279

>  <compound_id>  (500) 
20451

>  <target_id>  (500) 
1

>  <reference_id>  (500) 
28

>  <inspiration_ids>  (500) 
[28, 70]

>  <energy_score>  (500) 
454.5021797602536

>  <distance_score>  (500) 
12.960658011945384

>  <path>  (500) 
/opt/xchem-fragalysis-2/maxwin/BulkDock/SCRATCH/511015/C20451-P28/C20451-P28.minimised.mol

>  <scratch_subdir>  (500) 
/opt/xchem-fragalysis-2/maxwin/BulkDock/SCRATCH/511015/C20451-P28

>  <fragmenstein_runtime>  (500) 
21.927740335464478

>  <fragmenstein_outcome>  (500) 
too moved

>  <fragmenstein_mode>  (500) 
expansion

>  <fragmenstein_error>  (500) 


$$$$
C20451-P70
     RDKit          3D

 43 45  0  0  0  0  0  0  0  0999 V2000
  -10.6164  -20.9237   12.4363 C   0  0  0  0  0  0  0  0  0  0  0  0
  -11.1356  -19.5888   12.4443 C   0  0  0  0  0  0  0  0  0  0  0  0
  -11.0747  -18.2385   13.3313 C   0  0  0  0  0  0  0  0  0  0  0  0
  -10.2959  -18.1516   14.6674 C   0  0  0  0  0  0  0  0  0  0  0  0
   -8.6128  -16.8944   14.2803 C   0  0  0  0  0  0  0  0  0  0  0  0
   -7.5624  -15.4275   15.4118 C   0  0  0  0  0  0  0  0  0  0  0  0
   -6.9834  -13.7100   16.2308 N   0  0  0  0  0  0  0  0  0  0  0  0
   -5.9459  -12.3720   17.3940 C   0  0  0  0  0  0  0  0  0  0  0  0
   -4.1592  -11.5100   17.8237 C   0  0  0  0  0  0  0  0  0  0  0  0
   -3.6243  -10.0099   17.2059 C   0  0  0  0  0  0  0  0  0  0  0  0
   -2.5712   -9.5743   18.2247 C   0  0  0  0  0  0  0  0  0  0  0  0
   -1.9233  -10.9049   18.5668 C   0  0  0  0  0  0  0  0  0  0  0  0
   -2.6850  -11.9561   17.8364 N   0  0  0  0  0  0  0  0  0  0  0  0
   -6.9592  -16.9627   13.0773 C   0  0  0  0  0  0  0  0  0  0  0  0
   -7.2141  -17.4030   11.7082 C   0  0  0  0  0  0  0  0  0  0  0  0
   -8.0320  -16.4536   12.2537 O   0  0  0  0  0  0  0  0  0  0  0  0
   -9.2462  -16.4179   12.8630 C   0  0  0  0  0  0  0  0  0  0  0  0
  -10.1339  -19.9392   14.6156 C   0  0  0  0  0  0  0  0  0  0  0  0
  -10.1303  -21.1850   13.6599 C   0  0  0  0  0  0  0  0  0  0  0  0
  -10.8614  -21.6739   11.7031 H   0  0  0  0  0  0  0  0  0  0  0  0
  -12.1709  -19.7434   12.2149 H   0  0  0  0  0  0  0  0  0  0  0  0
  -11.6469  -17.3798   13.0137 H   0  0  0  0  0  0  0  0  0  0  0  0
   -7.7812  -14.7790   14.5700 H   0  0  0  0  0  0  0  0  0  0  0  0
   -6.5132  -15.6398   15.2858 H   0  0  0  0  0  0  0  0  0  0  0  0
   -6.2030  -14.3323   16.4598 H   0  0  0  0  0  0  0  0  0  0  0  0
   -6.2919  -12.4721   18.4552 H   0  0  0  0  0  0  0  0  0  0  0  0
   -6.6107  -11.4780   17.4078 H   0  0  0  0  0  0  0  0  0  0  0  0
   -4.2650  -11.5614   18.9338 H   0  0  0  0  0  0  0  0  0  0  0  0
   -3.0526  -10.1088   16.2768 H   0  0  0  0  0  0  0  0  0  0  0  0
   -4.3927   -9.2629   16.9852 H   0  0  0  0  0  0  0  0  0  0  0  0
   -3.0256   -9.1198   19.1104 H   0  0  0  0  0  0  0  0  0  0  0  0
   -1.8615   -8.8641   17.7899 H   0  0  0  0  0  0  0  0  0  0  0  0
   -1.9640  -11.0950   19.6448 H   0  0  0  0  0  0  0  0  0  0  0  0
   -0.8720  -10.9338   18.2634 H   0  0  0  0  0  0  0  0  0  0  0  0
   -2.3370  -12.0405   16.8819 H   0  0  0  0  0  0  0  0  0  0  0  0
   -6.3927  -16.0099   13.1570 H   0  0  0  0  0  0  0  0  0  0  0  0
   -6.1153  -17.6069   13.2734 H   0  0  0  0  0  0  0  0  0  0  0  0
   -7.9060  -18.1816   11.3081 H   0  0  0  0  0  0  0  0  0  0  0  0
   -6.6372  -18.3251   11.8844 H   0  0  0  0  0  0  0  0  0  0  0  0
   -9.7765  -15.4467   12.8901 H   0  0  0  0  0  0  0  0  0  0  0  0
   -9.9083  -16.9839   12.2274 H   0  0  0  0  0  0  0  0  0  0  0  0
   -9.8309  -20.3469   15.6165 H   0  0  0  0  0  0  0  0  0  0  0  0
   -9.8071  -22.1529   14.0119 H   0  0  0  0  0  0  0  0  0  0  0  0
  1  2  2  0
  2  3  1  0
  3  4  2  0
  4  5  1  0
  5  6  1  0
  6  7  1  0
  7  8  1  0
  8  9  1  0
  9 10  1  0
 10 11  1  0
 11 12  1  0
 12 13  1  0
  5 14  1  0
 14 15  1  0
 15 16  1  0
 16 17  1  0
  4 18  1  0
 18 19  2  0
 19  1  1  0
 17  5  1  0
 13  9  1  0
  1 20  1  0
  2 21  1  0
  3 22  1  0
  6 23  1  0
  6 24  1  0
  7 25  1  0
  8 26  1  0
  8 27  1  0
  9 28  1  0
 10 29  1  0
 10 30  1  0
 11 31  1  0
 11 32  1  0
 12 33  1  0
 12 34  1  0
 13 35  1  0
 14 36  1  0
 14 37  1  0
 15 38  1  0
 15 39  1  0
 17 40  1  0
 17 41  1  0
 18 42  1  0
 19 43  1  0
M  END
>  <Energy>  (501) 
1157.9365342864128

>  <compound_id>  (501) 
20451

>  <target_id>  (501) 
1

>  <reference_id>  (501) 
70

>  <inspiration_ids>  (501) 
[28, 70]

>  <energy_score>  (501) 
1031.8100809170737

>  <distance_score>  (501) 
12.595967684402982

>  <path>  (501) 
/opt/xchem-fragalysis-2/maxwin/BulkDock/SCRATCH/511015/C20451-P70/C20451-P70.minimised.mol

>  <scratch_subdir>  (501) 
/opt/xchem-fragalysis-2/maxwin/BulkDock/SCRATCH/511015/C20451-P70

>  <fragmenstein_runtime>  (501) 
17.431377410888672

>  <fragmenstein_outcome>  (501) 
too moved

>  <fragmenstein_mode>  (501) 
expansion

>  <fragmenstein_error>  (501) 


$$$$
C20458-P28
     RDKit          3D

 45 46  0  0  0  0  0  0  0  0999 V2000
   -6.1429   -2.8295   24.3938 C   0  0  0  0  0  0  0  0  0  0  0  0
   -4.2024   -3.2116   23.6600 C   0  0  0  0  0  0  0  0  0  0  0  0
   -3.0542   -2.2571   23.0006 C   0  0  0  0  0  0  0  0  0  0  0  0
   -4.4567   -4.5296   21.9039 C   0  0  0  0  0  0  0  0  0  0  0  0
   -4.6885   -4.2153   20.7777 O   0  0  0  0  0  0  0  0  0  0  0  0
   -4.0999   -6.3380   22.3628 N   0  0  0  0  0  0  0  0  0  0  0  0
   -3.8671   -7.8797   21.2992 C   0  0  0  0  0  0  0  0  0  0  0  0
   -3.2514   -9.2315   19.8231 C   0  0  0  0  0  0  0  0  0  0  0  0
   -4.0720  -10.8351   20.4150 C   0  0  0  0  0  0  0  0  0  0  0  0
   -4.0242  -12.0976   19.7342 O   0  0  0  0  0  0  0  0  0  0  0  0
   -3.1827  -10.2206   18.3796 C   0  0  0  0  0  0  0  0  0  0  0  0
   -2.6637   -9.4082   17.3201 C   0  0  0  0  0  0  0  0  0  0  0  0
   -1.4347   -9.1576   18.0637 C   0  0  0  0  0  0  0  0  0  0  0  0
   -1.8442   -8.8909   19.4217 O   0  0  0  0  0  0  0  0  0  0  0  0
   -3.3562   -2.2394   25.3828 C   0  0  0  0  0  0  0  0  0  0  0  0
   -2.0407   -1.9129   26.8187 C   0  0  0  0  0  0  0  0  0  0  0  0
   -2.4119   -0.7993   27.7498 C   0  0  0  0  0  0  0  0  0  0  0  0
   -2.6928    0.1882   26.7028 C   0  0  0  0  0  0  0  0  0  0  0  0
   -3.0959   -0.6540   25.5641 N   0  0  0  0  0  0  0  0  0  0  0  0
   -6.1101   -2.7049   25.5013 H   0  0  0  0  0  0  0  0  0  0  0  0
   -6.9927   -3.5521   24.2805 H   0  0  0  0  0  0  0  0  0  0  0  0
   -6.8247   -1.9660   24.4432 H   0  0  0  0  0  0  0  0  0  0  0  0
   -2.3648   -2.6343   23.7317 H   0  0  0  0  0  0  0  0  0  0  0  0
   -2.0551   -2.0561   22.5761 H   0  0  0  0  0  0  0  0  0  0  0  0
   -3.3425   -2.4232   21.9927 H   0  0  0  0  0  0  0  0  0  0  0  0
   -3.8425   -6.3905   23.3538 H   0  0  0  0  0  0  0  0  0  0  0  0
   -2.9186   -7.4534   21.0717 H   0  0  0  0  0  0  0  0  0  0  0  0
   -3.7325   -8.5169   22.1898 H   0  0  0  0  0  0  0  0  0  0  0  0
   -3.8834  -10.7142   21.4783 H   0  0  0  0  0  0  0  0  0  0  0  0
   -5.0578  -10.9873   20.7232 H   0  0  0  0  0  0  0  0  0  0  0  0
   -4.6244  -12.0827   18.9809 H   0  0  0  0  0  0  0  0  0  0  0  0
   -2.4677  -11.0500   18.5395 H   0  0  0  0  0  0  0  0  0  0  0  0
   -3.9785  -10.7982   17.9119 H   0  0  0  0  0  0  0  0  0  0  0  0
   -2.5256   -9.9750   16.3968 H   0  0  0  0  0  0  0  0  0  0  0  0
   -3.3076   -8.5471   17.2109 H   0  0  0  0  0  0  0  0  0  0  0  0
   -0.8946  -10.0905   17.9458 H   0  0  0  0  0  0  0  0  0  0  0  0
   -0.7206   -8.4227   17.7065 H   0  0  0  0  0  0  0  0  0  0  0  0
   -4.1965   -2.2476   26.0720 H   0  0  0  0  0  0  0  0  0  0  0  0
   -1.6174   -2.7394   27.4165 H   0  0  0  0  0  0  0  0  0  0  0  0
   -1.0791   -1.4123   26.6363 H   0  0  0  0  0  0  0  0  0  0  0  0
   -1.5929   -0.4853   28.4078 H   0  0  0  0  0  0  0  0  0  0  0  0
   -3.2099   -1.1165   28.3694 H   0  0  0  0  0  0  0  0  0  0  0  0
   -1.7823    0.7409   26.4338 H   0  0  0  0  0  0  0  0  0  0  0  0
   -3.4072    0.9757   26.9536 H   0  0  0  0  0  0  0  0  0  0  0  0
   -2.2244   -0.6791   25.0177 H   0  0  0  0  0  0  0  0  0  0  0  0
  1  2  1  0
  2  3  1  0
  2  4  1  0
  4  5  2  0
  4  6  1  0
  6  7  1  0
  7  8  1  0
  8  9  1  0
  9 10  1  0
  8 11  1  0
 11 12  1  0
 12 13  1  0
 13 14  1  0
  2 15  1  0
 15 16  1  0
 16 17  1  0
 17 18  1  0
 18 19  1  0
 14  8  1  0
 19 15  1  0
  1 20  1  0
  1 21  1  0
  1 22  1  0
  3 23  1  0
  3 24  1  0
  3 25  1  0
  6 26  1  0
  7 27  1  0
  7 28  1  0
  9 29  1  0
  9 30  1  0
 10 31  1  0
 11 32  1  0
 11 33  1  0
 12 34  1  0
 12 35  1  0
 13 36  1  0
 13 37  1  0
 15 38  1  0
 16 39  1  0
 16 40  1  0
 17 41  1  0
 17 42  1  0
 18 43  1  0
 18 44  1  0
 19 45  1  0
M  END
>  <Energy>  (502) 
1161.4366782631962

>  <compound_id>  (502) 
20458

>  <target_id>  (502) 
1

>  <reference_id>  (502) 
28

>  <inspiration_ids>  (502) 
[28, 70]

>  <energy_score>  (502) 
1061.6514159861053

>  <distance_score>  (502) 
11.721203257410012

>  <path>  (502) 
/opt/xchem-fragalysis-2/maxwin/BulkDock/SCRATCH/511015/C20458-P28/C20458-P28.minimised.mol

>  <scratch_subdir>  (502) 
/opt/xchem-fragalysis-2/maxwin/BulkDock/SCRATCH/511015/C20458-P28

>  <fragmenstein_runtime>  (502) 
29.4704487323761

>  <fragmenstein_outcome>  (502) 
too moved

>  <fragmenstein_mode>  (502) 
expansion

>  <fragmenstein_error>  (502) 


$$$$
C20458-P70
     RDKit          3D

 45 46  0  0  0  0  0  0  0  0999 V2000
   -1.8645   -2.3799   23.0953 C   0  0  0  0  0  0  0  0  0  0  0  0
   -3.4679   -2.9289   23.2454 C   0  0  0  0  0  0  0  0  0  0  0  0
   -3.1775   -1.7761   22.2223 C   0  0  0  0  0  0  0  0  0  0  0  0
   -4.1441   -4.4429   21.8805 C   0  0  0  0  0  0  0  0  0  0  0  0
   -4.5662   -4.1875   20.7868 O   0  0  0  0  0  0  0  0  0  0  0  0
   -3.9010   -6.2454   22.4431 N   0  0  0  0  0  0  0  0  0  0  0  0
   -4.0435   -7.6309   21.6457 C   0  0  0  0  0  0  0  0  0  0  0  0
   -2.6770   -8.8201   20.9377 C   0  0  0  0  0  0  0  0  0  0  0  0
   -1.3666   -8.8133   21.7650 C   0  0  0  0  0  0  0  0  0  0  0  0
   -0.1728   -8.3656   21.1196 O   0  0  0  0  0  0  0  0  0  0  0  0
   -2.3596   -8.8643   19.3658 C   0  0  0  0  0  0  0  0  0  0  0  0
   -2.5969  -10.2148   18.7547 C   0  0  0  0  0  0  0  0  0  0  0  0
   -2.9734  -11.0234   19.9255 C   0  0  0  0  0  0  0  0  0  0  0  0
   -3.1996  -10.1831   21.0705 O   0  0  0  0  0  0  0  0  0  0  0  0
   -3.5718   -2.0545   25.0962 C   0  0  0  0  0  0  0  0  0  0  0  0
   -2.8691   -0.3981   25.8406 C   0  0  0  0  0  0  0  0  0  0  0  0
   -2.2377   -0.3481   27.2153 C   0  0  0  0  0  0  0  0  0  0  0  0
   -2.4631   -1.7171   27.5995 C   0  0  0  0  0  0  0  0  0  0  0  0
   -3.6024   -2.2225   26.6825 N   0  0  0  0  0  0  0  0  0  0  0  0
   -1.7444   -1.4219   23.5444 H   0  0  0  0  0  0  0  0  0  0  0  0
   -1.2706   -2.2772   22.1893 H   0  0  0  0  0  0  0  0  0  0  0  0
   -1.1752   -3.1254   23.3942 H   0  0  0  0  0  0  0  0  0  0  0  0
   -3.8215   -0.8965   21.8449 H   0  0  0  0  0  0  0  0  0  0  0  0
   -2.5643   -0.8938   22.1957 H   0  0  0  0  0  0  0  0  0  0  0  0
   -3.3787   -2.4725   21.5040 H   0  0  0  0  0  0  0  0  0  0  0  0
   -3.4547   -6.2526   23.3664 H   0  0  0  0  0  0  0  0  0  0  0  0
   -3.5553   -7.2301   20.8089 H   0  0  0  0  0  0  0  0  0  0  0  0
   -4.0290   -8.3383   22.4263 H   0  0  0  0  0  0  0  0  0  0  0  0
   -1.4870   -8.2470   22.6839 H   0  0  0  0  0  0  0  0  0  0  0  0
   -1.1105   -9.8239   22.0314 H   0  0  0  0  0  0  0  0  0  0  0  0
    0.0643   -9.0513   20.4578 H   0  0  0  0  0  0  0  0  0  0  0  0
   -2.8660   -8.1220   18.7853 H   0  0  0  0  0  0  0  0  0  0  0  0
   -1.3231   -8.6183   19.1510 H   0  0  0  0  0  0  0  0  0  0  0  0
   -3.3206  -10.2149   17.9463 H   0  0  0  0  0  0  0  0  0  0  0  0
   -1.7512  -10.6550   18.2355 H   0  0  0  0  0  0  0  0  0  0  0  0
   -3.8894  -11.5706   19.7154 H   0  0  0  0  0  0  0  0  0  0  0  0
   -2.1640  -11.7187   20.1526 H   0  0  0  0  0  0  0  0  0  0  0  0
   -2.9846   -2.9738   25.2081 H   0  0  0  0  0  0  0  0  0  0  0  0
   -3.5928    0.4307   25.8264 H   0  0  0  0  0  0  0  0  0  0  0  0
   -1.9663   -0.0318   25.3949 H   0  0  0  0  0  0  0  0  0  0  0  0
   -2.6594    0.4201   27.8525 H   0  0  0  0  0  0  0  0  0  0  0  0
   -1.1623   -0.1234   27.1856 H   0  0  0  0  0  0  0  0  0  0  0  0
   -2.6061   -1.8667   28.6611 H   0  0  0  0  0  0  0  0  0  0  0  0
   -1.5268   -2.2702   27.4381 H   0  0  0  0  0  0  0  0  0  0  0  0
   -4.4466   -2.6267   27.1055 H   0  0  0  0  0  0  0  0  0  0  0  0
  1  2  1  0
  2  3  1  0
  2  4  1  0
  4  5  2  0
  4  6  1  0
  6  7  1  0
  7  8  1  0
  8  9  1  0
  9 10  1  0
  8 11  1  0
 11 12  1  0
 12 13  1  0
 13 14  1  0
  2 15  1  0
 15 16  1  0
 16 17  1  0
 17 18  1  0
 18 19  1  0
 14  8  1  0
 19 15  1  0
  1 20  1  0
  1 21  1  0
  1 22  1  0
  3 23  1  0
  3 24  1  0
  3 25  1  0
  6 26  1  0
  7 27  1  0
  7 28  1  0
  9 29  1  0
  9 30  1  0
 10 31  1  0
 11 32  1  0
 11 33  1  0
 12 34  1  0
 12 35  1  0
 13 36  1  0
 13 37  1  0
 15 38  1  0
 16 39  1  0
 16 40  1  0
 17 41  1  0
 17 42  1  0
 18 43  1  0
 18 44  1  0
 19 45  1  0
M  END
>  <Energy>  (503) 
782.92386107698462

>  <compound_id>  (503) 
20458

>  <target_id>  (503) 
1

>  <reference_id>  (503) 
70

>  <inspiration_ids>  (503) 
[28, 70]

>  <energy_score>  (503) 
683.1385987999104

>  <distance_score>  (503) 
11.421858390859617

>  <path>  (503) 
/opt/xchem-fragalysis-2/maxwin/BulkDock/SCRATCH/511015/C20458-P70/C20458-P70.minimised.mol

>  <scratch_subdir>  (503) 
/opt/xchem-fragalysis-2/maxwin/BulkDock/SCRATCH/511015/C20458-P70

>  <fragmenstein_runtime>  (503) 
34.27089548110962

>  <fragmenstein_outcome>  (503) 
too moved

>  <fragmenstein_mode>  (503) 
expansion

>  <fragmenstein_error>  (503) 


$$$$
C20459-P28
     RDKit          3D

 36 37  0  0  0  0  0  0  0  0999 V2000
   -9.9228  -15.8301   19.2654 O   0  0  0  0  0  0  0  0  0  0  0  0
   -8.9784  -15.7536   18.5240 C   0  0  0  0  0  0  0  0  0  0  0  0
   -8.6152  -17.2277   17.3118 N   0  0  0  0  0  0  0  0  0  0  0  0
   -9.6994  -18.9812   16.8840 C   0  0  0  0  0  0  0  0  0  0  0  0
   -9.7508  -20.6272   15.4069 C   0  0  0  0  0  0  0  0  0  0  0  0
   -8.3811  -21.7815   14.3643 C   0  0  0  0  0  0  0  0  0  0  0  0
   -7.4699  -21.4158   13.2432 O   0  0  0  0  0  0  0  0  0  0  0  0
   -9.9946  -22.3024   15.4762 C   0  0  0  0  0  0  0  0  0  0  0  0
  -10.7039  -22.8467   14.1940 C   0  0  0  0  0  0  0  0  0  0  0  0
  -10.8164  -21.5773   13.3700 C   0  0  0  0  0  0  0  0  0  0  0  0
  -10.6169  -20.3486   14.1412 O   0  0  0  0  0  0  0  0  0  0  0  0
   -8.1923  -13.9070   18.7056 C   0  0  0  0  0  0  0  0  0  0  0  0
   -8.0619  -12.6234   17.9269 C   0  0  0  0  0  0  0  0  0  0  0  0
   -6.6736  -12.1286   18.1096 C   0  0  0  0  0  0  0  0  0  0  0  0
   -6.4553  -12.2527   19.4903 C   0  0  0  0  0  0  0  0  0  0  0  0
   -7.4792  -13.2851   19.8398 N   0  0  0  0  0  0  0  0  0  0  0  0
   -7.8528  -16.9717   16.7112 H   0  0  0  0  0  0  0  0  0  0  0  0
  -10.4479  -18.5549   16.2198 H   0  0  0  0  0  0  0  0  0  0  0  0
   -9.4313  -19.6905   17.6684 H   0  0  0  0  0  0  0  0  0  0  0  0
   -8.8042  -22.5227   13.7140 H   0  0  0  0  0  0  0  0  0  0  0  0
   -7.7943  -22.3518   15.0643 H   0  0  0  0  0  0  0  0  0  0  0  0
   -6.8517  -22.1433   13.0694 H   0  0  0  0  0  0  0  0  0  0  0  0
   -9.9892  -22.5429   16.4832 H   0  0  0  0  0  0  0  0  0  0  0  0
   -9.2454  -23.1136   15.5068 H   0  0  0  0  0  0  0  0  0  0  0  0
  -10.1600  -23.6445   13.6622 H   0  0  0  0  0  0  0  0  0  0  0  0
  -11.6617  -23.3638   14.2610 H   0  0  0  0  0  0  0  0  0  0  0  0
  -11.8268  -21.5774   13.0210 H   0  0  0  0  0  0  0  0  0  0  0  0
  -10.1433  -21.5856   12.5084 H   0  0  0  0  0  0  0  0  0  0  0  0
   -9.1324  -13.6843   19.3001 H   0  0  0  0  0  0  0  0  0  0  0  0
   -8.2044  -12.6714   16.8790 H   0  0  0  0  0  0  0  0  0  0  0  0
   -8.8150  -11.9648   18.3392 H   0  0  0  0  0  0  0  0  0  0  0  0
   -5.9035  -12.8043   17.7239 H   0  0  0  0  0  0  0  0  0  0  0  0
   -6.4334  -11.2261   17.5298 H   0  0  0  0  0  0  0  0  0  0  0  0
   -6.4833  -11.5126   20.2742 H   0  0  0  0  0  0  0  0  0  0  0  0
   -5.3616  -12.4232   19.4894 H   0  0  0  0  0  0  0  0  0  0  0  0
   -8.2518  -12.7813   20.2384 H   0  0  0  0  0  0  0  0  0  0  0  0
  1  2  2  0
  2  3  1  0
  3  4  1  0
  4  5  1  0
  5  6  1  0
  6  7  1  0
  5  8  1  0
  8  9  1  0
  9 10  1  0
 10 11  1  0
  2 12  1  0
 12 13  1  0
 13 14  1  0
 14 15  1  0
 15 16  1  0
 11  5  1  0
 16 12  1  0
  3 17  1  0
  4 18  1  0
  4 19  1  0
  6 20  1  0
  6 21  1  0
  7 22  1  0
  8 23  1  0
  8 24  1  0
  9 25  1  0
  9 26  1  0
 10 27  1  0
 10 28  1  0
 12 29  1  0
 13 30  1  0
 13 31  1  0
 14 32  1  0
 14 33  1  0
 15 34  1  0
 15 35  1  0
 16 36  1  0
M  END
>  <Energy>  (504) 
882.15345288632636

>  <compound_id>  (504) 
20459

>  <target_id>  (504) 
1

>  <reference_id>  (504) 
28

>  <inspiration_ids>  (504) 
[28, 70]

>  <energy_score>  (504) 
777.6890836884678

>  <distance_score>  (504) 
13.978122709534635

>  <path>  (504) 
/opt/xchem-fragalysis-2/maxwin/BulkDock/SCRATCH/511015/C20459-P28/C20459-P28.minimised.mol

>  <scratch_subdir>  (504) 
/opt/xchem-fragalysis-2/maxwin/BulkDock/SCRATCH/511015/C20459-P28

>  <fragmenstein_runtime>  (504) 
12.363830804824829

>  <fragmenstein_outcome>  (504) 
too moved

>  <fragmenstein_mode>  (504) 
expansion

>  <fragmenstein_error>  (504) 


$$$$
C20459-P70
     RDKit          3D

 36 37  0  0  0  0  0  0  0  0999 V2000
   -3.6890  -20.3091   19.0388 O   0  0  0  0  0  0  0  0  0  0  0  0
   -4.0808  -19.4068   18.3453 C   0  0  0  0  0  0  0  0  0  0  0  0
   -5.3589  -19.2364   17.6148 N   0  0  0  0  0  0  0  0  0  0  0  0
   -6.6896  -20.3128   17.3972 C   0  0  0  0  0  0  0  0  0  0  0  0
   -7.6590  -20.9536   15.8609 C   0  0  0  0  0  0  0  0  0  0  0  0
   -7.8900  -22.2497   14.2879 C   0  0  0  0  0  0  0  0  0  0  0  0
   -7.2270  -21.8329   12.4880 O   0  0  0  0  0  0  0  0  0  0  0  0
   -8.4165  -21.3842   13.8790 C   0  0  0  0  0  0  0  0  0  0  0  0
   -9.9401  -21.4435   13.7756 C   0  0  0  0  0  0  0  0  0  0  0  0
  -10.0177  -20.9908   15.1518 C   0  0  0  0  0  0  0  0  0  0  0  0
   -9.1794  -20.6016   16.3921 O   0  0  0  0  0  0  0  0  0  0  0  0
   -3.1057  -18.1677   17.9882 C   0  0  0  0  0  0  0  0  0  0  0  0
   -2.5939  -17.0546   18.8828 C   0  0  0  0  0  0  0  0  0  0  0  0
   -1.2043  -17.4488   19.3389 C   0  0  0  0  0  0  0  0  0  0  0  0
   -0.6610  -18.1425   18.1293 C   0  0  0  0  0  0  0  0  0  0  0  0
   -1.8250  -18.7138   17.4473 N   0  0  0  0  0  0  0  0  0  0  0  0
   -5.3158  -18.4021   17.0722 H   0  0  0  0  0  0  0  0  0  0  0  0
   -7.4087  -19.5110   17.6449 H   0  0  0  0  0  0  0  0  0  0  0  0
   -6.0489  -20.6963   16.5479 H   0  0  0  0  0  0  0  0  0  0  0  0
   -7.2927  -22.9581   14.8207 H   0  0  0  0  0  0  0  0  0  0  0  0
   -8.8617  -23.0116   14.3079 H   0  0  0  0  0  0  0  0  0  0  0  0
   -6.7164  -20.9925   12.3972 H   0  0  0  0  0  0  0  0  0  0  0  0
   -8.7581  -21.2262   12.7717 H   0  0  0  0  0  0  0  0  0  0  0  0
   -7.7782  -20.5389   13.4653 H   0  0  0  0  0  0  0  0  0  0  0  0
  -10.4961  -20.8213   13.0453 H   0  0  0  0  0  0  0  0  0  0  0  0
  -10.3535  -22.4371   13.5081 H   0  0  0  0  0  0  0  0  0  0  0  0
  -10.2714  -20.0231   14.7837 H   0  0  0  0  0  0  0  0  0  0  0  0
  -10.1431  -22.0094   15.3522 H   0  0  0  0  0  0  0  0  0  0  0  0
   -3.6390  -17.6606   17.1799 H   0  0  0  0  0  0  0  0  0  0  0  0
   -2.4162  -16.1358   18.3289 H   0  0  0  0  0  0  0  0  0  0  0  0
   -3.3180  -16.7380   19.5984 H   0  0  0  0  0  0  0  0  0  0  0  0
   -1.2192  -18.1518   20.1746 H   0  0  0  0  0  0  0  0  0  0  0  0
   -0.5767  -16.5918   19.6038 H   0  0  0  0  0  0  0  0  0  0  0  0
    0.0574  -18.9247   18.3929 H   0  0  0  0  0  0  0  0  0  0  0  0
   -0.1439  -17.4318   17.4750 H   0  0  0  0  0  0  0  0  0  0  0  0
   -1.7658  -18.5227   16.4367 H   0  0  0  0  0  0  0  0  0  0  0  0
  1  2  2  0
  2  3  1  0
  3  4  1  0
  4  5  1  0
  5  6  1  0
  6  7  1  0
  5  8  1  0
  8  9  1  0
  9 10  1  0
 10 11  1  0
  2 12  1  0
 12 13  1  0
 13 14  1  0
 14 15  1  0
 15 16  1  0
 11  5  1  0
 16 12  1  0
  3 17  1  0
  4 18  1  0
  4 19  1  0
  6 20  1  0
  6 21  1  0
  7 22  1  0
  8 23  1  0
  8 24  1  0
  9 25  1  0
  9 26  1  0
 10 27  1  0
 10 28  1  0
 12 29  1  0
 13 30  1  0
 13 31  1  0
 14 32  1  0
 14 33  1  0
 15 34  1  0
 15 35  1  0
 16 36  1  0
M  END
>  <Energy>  (505) 
1060.9895492196767

>  <compound_id>  (505) 
20459

>  <target_id>  (505) 
1

>  <reference_id>  (505) 
70

>  <inspiration_ids>  (505) 
[28, 70]

>  <energy_score>  (505) 
956.5251800218189

>  <distance_score>  (505) 
16.472637863508496

>  <path>  (505) 
/opt/xchem-fragalysis-2/maxwin/BulkDock/SCRATCH/511015/C20459-P70/C20459-P70.minimised.mol

>  <scratch_subdir>  (505) 
/opt/xchem-fragalysis-2/maxwin/BulkDock/SCRATCH/511015/C20459-P70

>  <fragmenstein_runtime>  (505) 
8.402607440948486

>  <fragmenstein_outcome>  (505) 
too moved

>  <fragmenstein_mode>  (505) 
expansion

>  <fragmenstein_error>  (505) 


$$$$
C69599-P59
     RDKit          3D

 47 48  0  0  0  0  0  0  0  0999 V2000
   -2.6043   -3.2037   22.5450 C   0  0  0  0  0  0  0  0  0  0  0  0
   -2.7733   -4.6403   22.2688 C   0  0  0  0  0  0  0  0  0  0  0  0
   -3.3943   -5.3419   21.2673 C   0  0  0  0  0  0  0  0  0  0  0  0
   -3.1174   -6.6999   21.5413 C   0  0  0  0  0  0  0  0  0  0  0  0
   -3.4445   -7.7778   20.7538 N   0  0  0  0  0  0  0  0  0  0  0  0
   -4.0764   -7.8459   19.4536 C   0  0  0  0  0  0  0  0  0  0  0  0
   -4.5486   -6.9813   18.7651 O   0  0  0  0  0  0  0  0  0  0  0  0
   -4.0682   -9.2966   18.8609 C   0  0  0  0  0  0  0  0  0  0  0  0
   -2.6624   -9.8791   18.7757 C   0  0  0  0  0  0  0  0  0  0  0  0
   -5.2034  -10.3751   19.8160 S   0  0  0  0  0  0  0  0  0  0  0  0
   -6.1092  -11.3018   18.4342 C   0  0  0  0  0  0  0  0  0  0  0  0
   -5.4564  -12.6235   17.8935 C   0  0  0  0  0  0  0  0  0  0  0  0
   -4.2633  -12.6559   17.7582 O   0  0  0  0  0  0  0  0  0  0  0  0
   -6.4897  -13.6155   17.5409 N   0  0  0  0  0  0  0  0  0  0  0  0
   -6.3879  -14.9117   16.8240 C   0  0  0  0  0  0  0  0  0  0  0  0
   -7.5376  -15.9397   17.0782 C   0  0  0  0  0  0  0  0  0  0  0  0
   -7.7812  -16.9777   15.9486 C   0  0  0  0  0  0  0  0  0  0  0  0
   -8.9608  -17.9105   16.2347 C   0  0  0  0  0  0  0  0  0  0  0  0
   -8.7326  -19.1189   15.3343 C   0  0  0  0  0  0  0  0  0  0  0  0
   -7.2845  -19.0038   14.8937 C   0  0  0  0  0  0  0  0  0  0  0  0
   -6.6891  -17.9328   15.7135 N   0  0  0  0  0  0  0  0  0  0  0  0
   -2.4389   -6.8170   22.6927 N   0  0  0  0  0  0  0  0  0  0  0  0
   -2.1952   -5.5182   23.1298 O   0  0  0  0  0  0  0  0  0  0  0  0
   -1.5546   -2.9197   22.4417 H   0  0  0  0  0  0  0  0  0  0  0  0
   -2.9680   -2.9652   23.5451 H   0  0  0  0  0  0  0  0  0  0  0  0
   -3.1789   -2.6087   21.8281 H   0  0  0  0  0  0  0  0  0  0  0  0
   -3.9202   -4.9293   20.4184 H   0  0  0  0  0  0  0  0  0  0  0  0
   -3.0906   -8.6926   20.9970 H   0  0  0  0  0  0  0  0  0  0  0  0
   -4.4607   -9.2045   17.8412 H   0  0  0  0  0  0  0  0  0  0  0  0
   -2.2659  -10.1755   19.7525 H   0  0  0  0  0  0  0  0  0  0  0  0
   -2.6364  -10.7579   18.1257 H   0  0  0  0  0  0  0  0  0  0  0  0
   -1.9691   -9.1432   18.3530 H   0  0  0  0  0  0  0  0  0  0  0  0
   -6.2465  -10.6217   17.5876 H   0  0  0  0  0  0  0  0  0  0  0  0
   -7.1002  -11.5322   18.8183 H   0  0  0  0  0  0  0  0  0  0  0  0
   -7.4067  -13.2197   17.7224 H   0  0  0  0  0  0  0  0  0  0  0  0
   -6.3658  -14.6466   15.7612 H   0  0  0  0  0  0  0  0  0  0  0  0
   -5.4157  -15.3519   17.0690 H   0  0  0  0  0  0  0  0  0  0  0  0
   -7.3439  -16.4485   18.0311 H   0  0  0  0  0  0  0  0  0  0  0  0
   -8.4703  -15.3781   17.2202 H   0  0  0  0  0  0  0  0  0  0  0  0
   -7.9712  -16.4295   15.0161 H   0  0  0  0  0  0  0  0  0  0  0  0
   -9.9211  -17.4265   16.0300 H   0  0  0  0  0  0  0  0  0  0  0  0
   -8.9569  -18.2277   17.2850 H   0  0  0  0  0  0  0  0  0  0  0  0
   -8.9043  -20.0502   15.8822 H   0  0  0  0  0  0  0  0  0  0  0  0
   -9.4034  -19.0983   14.4689 H   0  0  0  0  0  0  0  0  0  0  0  0
   -7.2261  -18.7266   13.8350 H   0  0  0  0  0  0  0  0  0  0  0  0
   -6.7398  -19.9435   15.0213 H   0  0  0  0  0  0  0  0  0  0  0  0
   -6.4111  -18.3421   16.6083 H   0  0  0  0  0  0  0  0  0  0  0  0
  1  2  1  0
  2  3  2  0
  3  4  1  0
  4  5  1  0
  5  6  1  0
  6  7  2  0
  6  8  1  0
  8  9  1  0
  8 10  1  0
 10 11  1  0
 11 12  1  0
 12 13  2  0
 12 14  1  0
 14 15  1  0
 15 16  1  0
 16 17  1  0
 17 18  1  0
 18 19  1  0
 19 20  1  0
 20 21  1  0
  4 22  2  0
 22 23  1  0
 23  2  1  0
 21 17  1  0
  1 24  1  0
  1 25  1  0
  1 26  1  0
  3 27  1  0
  5 28  1  0
  8 29  1  0
  9 30  1  0
  9 31  1  0
  9 32  1  0
 11 33  1  0
 11 34  1  0
 14 35  1  0
 15 36  1  0
 15 37  1  0
 16 38  1  0
 16 39  1  0
 17 40  1  0
 18 41  1  0
 18 42  1  0
 19 43  1  0
 19 44  1  0
 20 45  1  0
 20 46  1  0
 21 47  1  0
M  END
>  <Energy>  (506) 
20.897844266300339

>  <compound_id>  (506) 
69599

>  <target_id>  (506) 
1

>  <reference_id>  (506) 
59

>  <inspiration_ids>  (506) 
[59, 30]

>  <energy_score>  (506) 
-27.039168150181695

>  <distance_score>  (506) 
12.654547219546405

>  <path>  (506) 
/opt/xchem-fragalysis-2/maxwin/BulkDock/SCRATCH/511015/C69599-P59/C69599-P59.minimised.mol

>  <scratch_subdir>  (506) 
/opt/xchem-fragalysis-2/maxwin/BulkDock/SCRATCH/511015/C69599-P59

>  <fragmenstein_runtime>  (506) 
25.36948037147522

>  <fragmenstein_outcome>  (506) 
too moved

>  <fragmenstein_mode>  (506) 
expansion

>  <fragmenstein_error>  (506) 


$$$$
C69599-P30
     RDKit          3D

 47 48  0  0  0  0  0  0  0  0999 V2000
   -6.3730   -2.8263   30.9146 C   0  0  0  0  0  0  0  0  0  0  0  0
   -6.8651   -3.6720   29.7496 C   0  0  0  0  0  0  0  0  0  0  0  0
   -6.5966   -4.9643   29.6215 C   0  0  0  0  0  0  0  0  0  0  0  0
   -7.1578   -5.6019   28.5500 C   0  0  0  0  0  0  0  0  0  0  0  0
   -6.6330   -6.8764   28.4658 N   0  0  0  0  0  0  0  0  0  0  0  0
   -6.4076   -7.7300   27.3401 C   0  0  0  0  0  0  0  0  0  0  0  0
   -6.6912   -7.5929   26.1884 O   0  0  0  0  0  0  0  0  0  0  0  0
   -5.5372   -8.9640   27.9057 C   0  0  0  0  0  0  0  0  0  0  0  0
   -4.0731   -8.7265   28.3125 C   0  0  0  0  0  0  0  0  0  0  0  0
   -5.2020  -10.1338   26.5844 S   0  0  0  0  0  0  0  0  0  0  0  0
   -5.4976  -11.8601   27.3995 C   0  0  0  0  0  0  0  0  0  0  0  0
   -6.6674  -12.7587   26.2135 C   0  0  0  0  0  0  0  0  0  0  0  0
   -6.4390  -12.3746   25.0747 O   0  0  0  0  0  0  0  0  0  0  0  0
   -7.8361  -14.1211   26.6691 N   0  0  0  0  0  0  0  0  0  0  0  0
   -8.8659  -15.3796   25.5433 C   0  0  0  0  0  0  0  0  0  0  0  0
  -10.1209  -16.9280   24.8173 C   0  0  0  0  0  0  0  0  0  0  0  0
   -9.7396  -18.6873   23.6328 C   0  0  0  0  0  0  0  0  0  0  0  0
  -10.2649  -20.3293   23.4276 C   0  0  0  0  0  0  0  0  0  0  0  0
   -9.5421  -20.8441   22.1797 C   0  0  0  0  0  0  0  0  0  0  0  0
   -8.1694  -20.2354   22.3175 C   0  0  0  0  0  0  0  0  0  0  0  0
   -8.4217  -18.8514   22.6547 N   0  0  0  0  0  0  0  0  0  0  0  0
   -7.9677   -4.7023   27.9729 N   0  0  0  0  0  0  0  0  0  0  0  0
   -7.7249   -3.4265   28.7014 O   0  0  0  0  0  0  0  0  0  0  0  0
   -5.2833   -2.9217   30.9932 H   0  0  0  0  0  0  0  0  0  0  0  0
   -6.6920   -3.1266   31.9050 H   0  0  0  0  0  0  0  0  0  0  0  0
   -6.6422   -1.7801   30.9328 H   0  0  0  0  0  0  0  0  0  0  0  0
   -6.1862   -5.4529   30.4306 H   0  0  0  0  0  0  0  0  0  0  0  0
   -6.1785   -7.2801   29.2861 H   0  0  0  0  0  0  0  0  0  0  0  0
   -6.0659   -9.3840   28.7670 H   0  0  0  0  0  0  0  0  0  0  0  0
   -3.5322   -9.6636   28.5113 H   0  0  0  0  0  0  0  0  0  0  0  0
   -3.9683   -8.1932   29.2444 H   0  0  0  0  0  0  0  0  0  0  0  0
   -3.5127   -8.1688   27.5522 H   0  0  0  0  0  0  0  0  0  0  0  0
   -4.4229  -12.0295   27.2614 H   0  0  0  0  0  0  0  0  0  0  0  0
   -5.5844  -11.7780   28.5042 H   0  0  0  0  0  0  0  0  0  0  0  0
   -7.9060  -14.1832   27.6810 H   0  0  0  0  0  0  0  0  0  0  0  0
   -7.9744  -15.6417   25.0720 H   0  0  0  0  0  0  0  0  0  0  0  0
   -8.9663  -15.8949   26.5115 H   0  0  0  0  0  0  0  0  0  0  0  0
  -11.0935  -16.6840   24.3816 H   0  0  0  0  0  0  0  0  0  0  0  0
  -10.2761  -17.1458   25.8631 H   0  0  0  0  0  0  0  0  0  0  0  0
  -10.1266  -18.5158   22.6879 H   0  0  0  0  0  0  0  0  0  0  0  0
  -11.3420  -20.4640   23.2858 H   0  0  0  0  0  0  0  0  0  0  0  0
   -9.9681  -21.0220   24.2184 H   0  0  0  0  0  0  0  0  0  0  0  0
  -10.0451  -20.4969   21.2711 H   0  0  0  0  0  0  0  0  0  0  0  0
   -9.5100  -21.9373   22.1567 H   0  0  0  0  0  0  0  0  0  0  0  0
   -7.5949  -20.3183   21.3911 H   0  0  0  0  0  0  0  0  0  0  0  0
   -7.6034  -20.7243   23.1179 H   0  0  0  0  0  0  0  0  0  0  0  0
   -7.6501  -18.3318   23.0823 H   0  0  0  0  0  0  0  0  0  0  0  0
  1  2  1  0
  2  3  2  0
  3  4  1  0
  4  5  1  0
  5  6  1  0
  6  7  2  0
  6  8  1  0
  8  9  1  0
  8 10  1  0
 10 11  1  0
 11 12  1  0
 12 13  2  0
 12 14  1  0
 14 15  1  0
 15 16  1  0
 16 17  1  0
 17 18  1  0
 18 19  1  0
 19 20  1  0
 20 21  1  0
  4 22  2  0
 22 23  1  0
 23  2  1  0
 21 17  1  0
  1 24  1  0
  1 25  1  0
  1 26  1  0
  3 27  1  0
  5 28  1  0
  8 29  1  0
  9 30  1  0
  9 31  1  0
  9 32  1  0
 11 33  1  0
 11 34  1  0
 14 35  1  0
 15 36  1  0
 15 37  1  0
 16 38  1  0
 16 39  1  0
 17 40  1  0
 18 41  1  0
 18 42  1  0
 19 43  1  0
 19 44  1  0
 20 45  1  0
 20 46  1  0
 21 47  1  0
M  END
>  <Energy>  (507) 
631.67833883122125

>  <compound_id>  (507) 
69599

>  <target_id>  (507) 
1

>  <reference_id>  (507) 
30

>  <inspiration_ids>  (507) 
[59, 30]

>  <energy_score>  (507) 
583.7413264147402

>  <distance_score>  (507) 
11.119760238966645

>  <path>  (507) 
/opt/xchem-fragalysis-2/maxwin/BulkDock/SCRATCH/511015/C69599-P30/C69599-P30.minimised.mol

>  <scratch_subdir>  (507) 
/opt/xchem-fragalysis-2/maxwin/BulkDock/SCRATCH/511015/C69599-P30

>  <fragmenstein_runtime>  (507) 
17.98279571533203

>  <fragmenstein_outcome>  (507) 
too moved

>  <fragmenstein_mode>  (507) 
expansion

>  <fragmenstein_error>  (507) 


$$$$
C40156-P59
     RDKit          3D

 50 51  0  0  0  0  0  0  0  0999 V2000
    0.3115   -1.8054   29.2199 C   0  0  0  0  0  0  0  0  0  0  0  0
   -0.9058   -2.1342   29.9834 C   0  0  0  0  0  0  0  0  0  0  0  0
   -2.1570   -1.5794   30.0493 C   0  0  0  0  0  0  0  0  0  0  0  0
   -2.8574   -2.4348   30.9140 C   0  0  0  0  0  0  0  0  0  0  0  0
   -4.1211   -2.2794   31.3606 O   0  0  0  0  0  0  0  0  0  0  0  0
   -5.1688   -3.2149   30.9306 C   0  0  0  0  0  0  0  0  0  0  0  0
   -5.9576   -4.1635   29.3408 C   0  0  0  0  0  0  0  0  0  0  0  0
   -6.0234   -3.4136   28.4165 O   0  0  0  0  0  0  0  0  0  0  0  0
   -6.3216   -5.8130   29.3175 N   0  0  0  0  0  0  0  0  0  0  0  0
   -6.7507   -6.8794   27.9967 C   0  0  0  0  0  0  0  0  0  0  0  0
   -6.2593   -8.7132   27.7793 C   0  0  0  0  0  0  0  0  0  0  0  0
   -5.6898   -9.1607   29.1313 C   0  0  0  0  0  0  0  0  0  0  0  0
   -5.6136  -10.0417   26.4737 C   0  0  0  0  0  0  0  0  0  0  0  0
   -6.0050  -11.8180   26.0108 N   0  0  0  0  0  0  0  0  0  0  0  0
   -6.2493  -12.5933   24.4151 C   0  0  0  0  0  0  0  0  0  0  0  0
   -6.2739  -12.0041   23.3718 O   0  0  0  0  0  0  0  0  0  0  0  0
   -6.7270  -14.6730   24.1300 C   0  0  0  0  0  0  0  0  0  0  0  0
   -7.5236  -16.4745   23.4410 N   0  0  0  0  0  0  0  0  0  0  0  0
   -7.6754  -16.8339   21.7208 C   0  0  0  0  0  0  0  0  0  0  0  0
   -6.5401  -17.6133   21.0052 C   0  0  0  0  0  0  0  0  0  0  0  0
   -6.7528  -18.8251   21.7480 C   0  0  0  0  0  0  0  0  0  0  0  0
   -6.8762  -18.0977   23.1628 C   0  0  0  0  0  0  0  0  0  0  0  0
   -2.0834   -3.3755   31.4522 N   0  0  0  0  0  0  0  0  0  0  0  0
   -0.8439   -3.2027   30.8296 O   0  0  0  0  0  0  0  0  0  0  0  0
    0.6645   -2.6807   28.6660 H   0  0  0  0  0  0  0  0  0  0  0  0
    1.1086   -1.4779   29.8940 H   0  0  0  0  0  0  0  0  0  0  0  0
    0.1203   -1.0033   28.5002 H   0  0  0  0  0  0  0  0  0  0  0  0
   -2.5117   -0.7097   29.5187 H   0  0  0  0  0  0  0  0  0  0  0  0
   -4.8817   -3.8919   31.7150 H   0  0  0  0  0  0  0  0  0  0  0  0
   -6.0487   -2.6555   31.3046 H   0  0  0  0  0  0  0  0  0  0  0  0
   -6.2590   -6.1825   30.2584 H   0  0  0  0  0  0  0  0  0  0  0  0
   -6.5605   -6.3854   27.0643 H   0  0  0  0  0  0  0  0  0  0  0  0
   -7.8152   -6.9309   28.2235 H   0  0  0  0  0  0  0  0  0  0  0  0
   -7.3162   -8.9509   27.7082 H   0  0  0  0  0  0  0  0  0  0  0  0
   -4.6678   -8.7884   29.2310 H   0  0  0  0  0  0  0  0  0  0  0  0
   -6.3329   -8.8153   29.9443 H   0  0  0  0  0  0  0  0  0  0  0  0
   -5.6132  -10.2417   29.2632 H   0  0  0  0  0  0  0  0  0  0  0  0
   -4.9682  -10.4868   27.2611 H   0  0  0  0  0  0  0  0  0  0  0  0
   -4.6825   -9.7146   25.9942 H   0  0  0  0  0  0  0  0  0  0  0  0
   -6.1093  -12.5144   26.7393 H   0  0  0  0  0  0  0  0  0  0  0  0
   -7.3556  -14.7570   25.0587 H   0  0  0  0  0  0  0  0  0  0  0  0
   -5.6334  -14.9393   23.9074 H   0  0  0  0  0  0  0  0  0  0  0  0
   -8.4506  -17.5642   21.7977 H   0  0  0  0  0  0  0  0  0  0  0  0
   -8.0194  -16.0236   21.1164 H   0  0  0  0  0  0  0  0  0  0  0  0
   -6.6372  -17.7688   19.9295 H   0  0  0  0  0  0  0  0  0  0  0  0
   -5.5165  -17.3243   21.2428 H   0  0  0  0  0  0  0  0  0  0  0  0
   -6.0026  -19.5455   21.4469 H   0  0  0  0  0  0  0  0  0  0  0  0
   -7.6435  -19.3791   21.4763 H   0  0  0  0  0  0  0  0  0  0  0  0
   -6.2438  -18.3884   23.9295 H   0  0  0  0  0  0  0  0  0  0  0  0
   -7.7206  -18.7636   23.3657 H   0  0  0  0  0  0  0  0  0  0  0  0
  1  2  1  0
  2  3  2  0
  3  4  1  0
  4  5  1  0
  5  6  1  0
  6  7  1  0
  7  8  2  0
  7  9  1  0
  9 10  1  0
 10 11  1  0
 11 12  1  0
 11 13  1  0
 13 14  1  0
 14 15  1  0
 15 16  2  0
 15 17  1  0
 17 18  1  0
 18 19  1  0
 19 20  1  0
 20 21  1  0
 21 22  1  0
  4 23  2  0
 23 24  1  0
 24  2  1  0
 22 18  1  0
  1 25  1  0
  1 26  1  0
  1 27  1  0
  3 28  1  0
  6 29  1  0
  6 30  1  0
  9 31  1  0
 10 32  1  0
 10 33  1  0
 11 34  1  0
 12 35  1  0
 12 36  1  0
 12 37  1  0
 13 38  1  0
 13 39  1  0
 14 40  1  0
 17 41  1  0
 17 42  1  0
 19 43  1  0
 19 44  1  0
 20 45  1  0
 20 46  1  0
 21 47  1  0
 21 48  1  0
 22 49  1  0
 22 50  1  0
M  END
>  <Energy>  (508) 
864.01525074764902

>  <compound_id>  (508) 
40156

>  <target_id>  (508) 
1

>  <reference_id>  (508) 
59

>  <inspiration_ids>  (508) 
[59, 30]

>  <energy_score>  (508) 
788.9825521769869

>  <distance_score>  (508) 
9.018769592254504

>  <path>  (508) 
/opt/xchem-fragalysis-2/maxwin/BulkDock/SCRATCH/511015/C40156-P59/C40156-P59.minimised.mol

>  <scratch_subdir>  (508) 
/opt/xchem-fragalysis-2/maxwin/BulkDock/SCRATCH/511015/C40156-P59

>  <fragmenstein_runtime>  (508) 
37.40303683280945

>  <fragmenstein_outcome>  (508) 
too moved

>  <fragmenstein_mode>  (508) 
expansion

>  <fragmenstein_error>  (508) 


$$$$
C40156-P30
     RDKit          3D

 50 51  0  0  0  0  0  0  0  0999 V2000
   -0.2757    0.2748   27.6939 C   0  0  0  0  0  0  0  0  0  0  0  0
   -0.5115    0.0332   29.1263 C   0  0  0  0  0  0  0  0  0  0  0  0
   -1.1717   -0.9435   29.8310 C   0  0  0  0  0  0  0  0  0  0  0  0
   -1.0231   -0.5347   31.1645 C   0  0  0  0  0  0  0  0  0  0  0  0
   -1.4940   -1.0753   32.3030 O   0  0  0  0  0  0  0  0  0  0  0  0
   -2.8987   -1.2338   32.2728 C   0  0  0  0  0  0  0  0  0  0  0  0
   -3.3934   -2.5720   31.6917 C   0  0  0  0  0  0  0  0  0  0  0  0
   -2.6092   -3.4462   31.4505 O   0  0  0  0  0  0  0  0  0  0  0  0
   -4.8404   -2.5508   31.6101 N   0  0  0  0  0  0  0  0  0  0  0  0
   -5.7965   -3.6053   31.3064 C   0  0  0  0  0  0  0  0  0  0  0  0
   -6.4064   -4.4537   29.8258 C   0  0  0  0  0  0  0  0  0  0  0  0
   -5.9727   -3.6720   28.7229 C   0  0  0  0  0  0  0  0  0  0  0  0
   -6.9015   -6.0044   29.2410 C   0  0  0  0  0  0  0  0  0  0  0  0
   -6.2973   -6.9712   28.2964 N   0  0  0  0  0  0  0  0  0  0  0  0
   -5.9777   -8.4152   28.4555 C   0  0  0  0  0  0  0  0  0  0  0  0
   -6.0709   -9.1355   29.4116 O   0  0  0  0  0  0  0  0  0  0  0  0
   -5.3305   -8.9595   27.1368 C   0  0  0  0  0  0  0  0  0  0  0  0
   -4.8575  -10.4008   27.1249 N   0  0  0  0  0  0  0  0  0  0  0  0
   -4.0407  -10.7609   28.2914 C   0  0  0  0  0  0  0  0  0  0  0  0
   -3.1959  -11.9407   27.8433 C   0  0  0  0  0  0  0  0  0  0  0  0
   -2.8424  -11.5919   26.4206 C   0  0  0  0  0  0  0  0  0  0  0  0
   -3.9619  -10.6644   25.9738 C   0  0  0  0  0  0  0  0  0  0  0  0
   -0.2986    0.5741   31.2939 N   0  0  0  0  0  0  0  0  0  0  0  0
    0.0247    0.9375   29.9929 O   0  0  0  0  0  0  0  0  0  0  0  0
   -1.0901   -0.1431   27.0953 H   0  0  0  0  0  0  0  0  0  0  0  0
    0.6644   -0.1895   27.3838 H   0  0  0  0  0  0  0  0  0  0  0  0
   -0.2177    1.3464   27.4792 H   0  0  0  0  0  0  0  0  0  0  0  0
   -1.6764   -1.8072   29.4263 H   0  0  0  0  0  0  0  0  0  0  0  0
   -3.2414   -1.1991   33.3141 H   0  0  0  0  0  0  0  0  0  0  0  0
   -3.3802   -0.4006   31.7507 H   0  0  0  0  0  0  0  0  0  0  0  0
   -5.1797   -1.6661   31.9724 H   0  0  0  0  0  0  0  0  0  0  0  0
   -5.5584   -4.2450   32.1370 H   0  0  0  0  0  0  0  0  0  0  0  0
   -6.6882   -3.0369   31.5882 H   0  0  0  0  0  0  0  0  0  0  0  0
   -7.4066   -4.0169   29.9209 H   0  0  0  0  0  0  0  0  0  0  0  0
   -5.2129   -3.2363   29.3168 H   0  0  0  0  0  0  0  0  0  0  0  0
   -5.1694   -3.6683   28.0287 H   0  0  0  0  0  0  0  0  0  0  0  0
   -6.8147   -3.0912   28.3152 H   0  0  0  0  0  0  0  0  0  0  0  0
   -7.7643   -5.7523   28.6062 H   0  0  0  0  0  0  0  0  0  0  0  0
   -7.1986   -6.6364   30.0817 H   0  0  0  0  0  0  0  0  0  0  0  0
   -6.1766   -6.7079   27.3231 H   0  0  0  0  0  0  0  0  0  0  0  0
   -4.4759   -8.3121   26.9188 H   0  0  0  0  0  0  0  0  0  0  0  0
   -6.0979   -8.8407   26.3702 H   0  0  0  0  0  0  0  0  0  0  0  0
   -4.6453  -11.0483   29.1555 H   0  0  0  0  0  0  0  0  0  0  0  0
   -3.3813   -9.9333   28.5848 H   0  0  0  0  0  0  0  0  0  0  0  0
   -3.7618  -12.8640   27.9359 H   0  0  0  0  0  0  0  0  0  0  0  0
   -2.3005  -12.0531   28.4636 H   0  0  0  0  0  0  0  0  0  0  0  0
   -2.6842  -12.4613   25.7814 H   0  0  0  0  0  0  0  0  0  0  0  0
   -1.8968  -11.0338   26.4181 H   0  0  0  0  0  0  0  0  0  0  0  0
   -4.5311  -11.1232   25.1796 H   0  0  0  0  0  0  0  0  0  0  0  0
   -3.4973   -9.7510   25.5826 H   0  0  0  0  0  0  0  0  0  0  0  0
  1  2  1  0
  2  3  2  0
  3  4  1  0
  4  5  1  0
  5  6  1  0
  6  7  1  0
  7  8  2  0
  7  9  1  0
  9 10  1  0
 10 11  1  0
 11 12  1  0
 11 13  1  0
 13 14  1  0
 14 15  1  0
 15 16  2  0
 15 17  1  0
 17 18  1  0
 18 19  1  0
 19 20  1  0
 20 21  1  0
 21 22  1  0
  4 23  2  0
 23 24  1  0
 24  2  1  0
 22 18  1  0
  1 25  1  0
  1 26  1  0
  1 27  1  0
  3 28  1  0
  6 29  1  0
  6 30  1  0
  9 31  1  0
 10 32  1  0
 10 33  1  0
 11 34  1  0
 12 35  1  0
 12 36  1  0
 12 37  1  0
 13 38  1  0
 13 39  1  0
 14 40  1  0
 17 41  1  0
 17 42  1  0
 19 43  1  0
 19 44  1  0
 20 45  1  0
 20 46  1  0
 21 47  1  0
 21 48  1  0
 22 49  1  0
 22 50  1  0
M  END
>  <Energy>  (509) 
190.00427668959949

>  <compound_id>  (509) 
40156

>  <target_id>  (509) 
1

>  <reference_id>  (509) 
30

>  <inspiration_ids>  (509) 
[59, 30]

>  <energy_score>  (509) 
114.97157811893908

>  <distance_score>  (509) 
13.114034824542188

>  <path>  (509) 
/opt/xchem-fragalysis-2/maxwin/BulkDock/SCRATCH/511015/C40156-P30/C40156-P30.minimised.mol

>  <scratch_subdir>  (509) 
/opt/xchem-fragalysis-2/maxwin/BulkDock/SCRATCH/511015/C40156-P30

>  <fragmenstein_runtime>  (509) 
27.543655157089233

>  <fragmenstein_outcome>  (509) 
too moved

>  <fragmenstein_mode>  (509) 
expansion

>  <fragmenstein_error>  (509) 


$$$$
C40162-P59
     RDKit          3D

 47 48  0  0  0  0  0  0  0  0999 V2000
   -2.4000   -1.1273   32.6813 C   0  0  0  0  0  0  0  0  0  0  0  0
   -3.5153   -1.9233   32.1437 C   0  0  0  0  0  0  0  0  0  0  0  0
   -3.6246   -2.8101   31.1144 C   0  0  0  0  0  0  0  0  0  0  0  0
   -5.1013   -3.2128   30.9963 C   0  0  0  0  0  0  0  0  0  0  0  0
   -6.1237   -4.3119   29.7721 C   0  0  0  0  0  0  0  0  0  0  0  0
   -6.2255   -5.4897   29.7098 O   0  0  0  0  0  0  0  0  0  0  0  0
   -6.6467   -3.4066   29.0681 N   0  0  0  0  0  0  0  0  0  0  0  0
   -5.7436   -3.0809   27.9468 C   0  0  0  0  0  0  0  0  0  0  0  0
   -7.6986   -3.4564   27.9516 C   0  0  0  0  0  0  0  0  0  0  0  0
   -8.7247   -4.6301   27.7636 C   0  0  0  0  0  0  0  0  0  0  0  0
   -9.6712   -4.6521   28.8418 O   0  0  0  0  0  0  0  0  0  0  0  0
   -9.6291   -4.3925   26.5129 C   0  0  0  0  0  0  0  0  0  0  0  0
  -10.2178   -5.6385   25.9518 N   0  0  0  0  0  0  0  0  0  0  0  0
  -11.4203   -5.3568   25.1282 C   0  0  0  0  0  0  0  0  0  0  0  0
  -11.6021   -6.2928   23.8783 C   0  0  0  0  0  0  0  0  0  0  0  0
  -10.6710   -6.5877   23.1714 O   0  0  0  0  0  0  0  0  0  0  0  0
  -13.0103   -6.5855   23.7443 N   0  0  0  0  0  0  0  0  0  0  0  0
  -13.7730   -7.2485   22.6339 C   0  0  0  0  0  0  0  0  0  0  0  0
  -13.3225   -8.6441   22.2746 C   0  0  0  0  0  0  0  0  0  0  0  0
  -13.0446   -9.1531   23.6389 C   0  0  0  0  0  0  0  0  0  0  0  0
  -13.3495   -7.8906   24.4521 C   0  0  0  0  0  0  0  0  0  0  0  0
   -5.6843   -2.4603   31.9838 N   0  0  0  0  0  0  0  0  0  0  0  0
   -4.7355   -1.7628   32.6871 O   0  0  0  0  0  0  0  0  0  0  0  0
   -1.7725   -1.7438   33.3320 H   0  0  0  0  0  0  0  0  0  0  0  0
   -1.7771   -0.7362   31.8710 H   0  0  0  0  0  0  0  0  0  0  0  0
   -2.7660   -0.2769   33.2649 H   0  0  0  0  0  0  0  0  0  0  0  0
   -2.7945   -3.0432   30.4589 H   0  0  0  0  0  0  0  0  0  0  0  0
   -5.1892   -3.9476   28.1133 H   0  0  0  0  0  0  0  0  0  0  0  0
   -5.5427   -2.9265   26.8855 H   0  0  0  0  0  0  0  0  0  0  0  0
   -4.7575   -2.6432   28.0648 H   0  0  0  0  0  0  0  0  0  0  0  0
   -8.3850   -2.8268   28.5619 H   0  0  0  0  0  0  0  0  0  0  0  0
   -7.7463   -2.6748   27.1775 H   0  0  0  0  0  0  0  0  0  0  0  0
   -8.2027   -5.5918   27.7168 H   0  0  0  0  0  0  0  0  0  0  0  0
  -10.1044   -5.5218   28.8202 H   0  0  0  0  0  0  0  0  0  0  0  0
   -9.0791   -3.9095   25.7019 H   0  0  0  0  0  0  0  0  0  0  0  0
  -10.4421   -3.7126   26.8020 H   0  0  0  0  0  0  0  0  0  0  0  0
  -10.4735   -6.2876   26.6918 H   0  0  0  0  0  0  0  0  0  0  0  0
  -11.3675   -4.3442   24.7068 H   0  0  0  0  0  0  0  0  0  0  0  0
  -12.3074   -5.3943   25.7705 H   0  0  0  0  0  0  0  0  0  0  0  0
  -13.6090   -6.6076   21.7571 H   0  0  0  0  0  0  0  0  0  0  0  0
  -14.8563   -7.1812   22.8289 H   0  0  0  0  0  0  0  0  0  0  0  0
  -14.0979   -9.1989   21.7407 H   0  0  0  0  0  0  0  0  0  0  0  0
  -12.4202   -8.6016   21.6626 H   0  0  0  0  0  0  0  0  0  0  0  0
  -12.0023   -9.4584   23.7415 H   0  0  0  0  0  0  0  0  0  0  0  0
  -13.6824   -9.9905   23.9356 H   0  0  0  0  0  0  0  0  0  0  0  0
  -14.3994   -7.8574   24.7884 H   0  0  0  0  0  0  0  0  0  0  0  0
  -12.7621   -7.9288   25.3800 H   0  0  0  0  0  0  0  0  0  0  0  0
  1  2  1  0
  2  3  2  0
  3  4  1  0
  4  5  1  0
  5  6  2  0
  5  7  1  0
  7  8  1  0
  7  9  1  0
  9 10  1  0
 10 11  1  0
 10 12  1  0
 12 13  1  0
 13 14  1  0
 14 15  1  0
 15 16  2  0
 15 17  1  0
 17 18  1  0
 18 19  1  0
 19 20  1  0
 20 21  1  0
  4 22  2  0
 22 23  1  0
 23  2  1  0
 21 17  1  0
  1 24  1  0
  1 25  1  0
  1 26  1  0
  3 27  1  0
  8 28  1  0
  8 29  1  0
  8 30  1  0
  9 31  1  0
  9 32  1  0
 10 33  1  0
 11 34  1  0
 12 35  1  0
 12 36  1  0
 13 37  1  0
 14 38  1  0
 14 39  1  0
 18 40  1  0
 18 41  1  0
 19 42  1  0
 19 43  1  0
 20 44  1  0
 20 45  1  0
 21 46  1  0
 21 47  1  0
M  END
>  <Energy>  (510) 
383.59582457189987

>  <compound_id>  (510) 
40162

>  <target_id>  (510) 
1

>  <reference_id>  (510) 
59

>  <inspiration_ids>  (510) 
[59, 30]

>  <energy_score>  (510) 
261.76105041779067

>  <distance_score>  (510) 
14.61448547081515

>  <path>  (510) 
/opt/xchem-fragalysis-2/maxwin/BulkDock/SCRATCH/511015/C40162-P59/C40162-P59.minimised.mol

>  <scratch_subdir>  (510) 
/opt/xchem-fragalysis-2/maxwin/BulkDock/SCRATCH/511015/C40162-P59

>  <fragmenstein_runtime>  (510) 
13.984442234039307

>  <fragmenstein_outcome>  (510) 
too moved

>  <fragmenstein_mode>  (510) 
expansion

>  <fragmenstein_error>  (510) 


$$$$
C40162-P30
     RDKit          3D

 47 48  0  0  0  0  0  0  0  0999 V2000
   -0.9170   -8.2831   31.5852 C   0  0  0  0  0  0  0  0  0  0  0  0
   -2.0918   -8.9804   31.0241 C   0  0  0  0  0  0  0  0  0  0  0  0
   -2.4754   -9.2930   29.7475 C   0  0  0  0  0  0  0  0  0  0  0  0
   -3.8991   -9.5024   29.8573 C   0  0  0  0  0  0  0  0  0  0  0  0
   -4.7967   -8.8466   28.8610 C   0  0  0  0  0  0  0  0  0  0  0  0
   -4.1913   -8.0089   28.2559 O   0  0  0  0  0  0  0  0  0  0  0  0
   -6.1769   -9.1908   28.8213 N   0  0  0  0  0  0  0  0  0  0  0  0
   -6.9569   -8.3984   29.8552 C   0  0  0  0  0  0  0  0  0  0  0  0
   -7.3144   -8.6786   27.9113 C   0  0  0  0  0  0  0  0  0  0  0  0
   -6.9444   -8.9065   26.3831 C   0  0  0  0  0  0  0  0  0  0  0  0
   -5.8117   -8.0810   26.1123 O   0  0  0  0  0  0  0  0  0  0  0  0
   -7.1166  -10.5119   25.2757 C   0  0  0  0  0  0  0  0  0  0  0  0
   -7.6363  -10.6242   23.4693 N   0  0  0  0  0  0  0  0  0  0  0  0
   -8.2276  -12.0180   22.5169 C   0  0  0  0  0  0  0  0  0  0  0  0
   -9.5423  -12.8010   21.1434 C   0  0  0  0  0  0  0  0  0  0  0  0
  -10.6965  -12.8931   21.5534 O   0  0  0  0  0  0  0  0  0  0  0  0
   -8.9921  -13.1377   19.5225 N   0  0  0  0  0  0  0  0  0  0  0  0
   -9.7654  -13.4847   18.2893 C   0  0  0  0  0  0  0  0  0  0  0  0
   -8.9295  -14.0773   17.1726 C   0  0  0  0  0  0  0  0  0  0  0  0
   -7.9346  -14.8217   17.9861 C   0  0  0  0  0  0  0  0  0  0  0  0
   -8.5587  -14.6284   19.3694 C   0  0  0  0  0  0  0  0  0  0  0  0
   -4.2214   -9.7201   31.1447 N   0  0  0  0  0  0  0  0  0  0  0  0
   -3.0975   -9.3196   31.8755 O   0  0  0  0  0  0  0  0  0  0  0  0
   -0.1436   -8.1418   30.8240 H   0  0  0  0  0  0  0  0  0  0  0  0
   -1.2048   -7.2990   31.9676 H   0  0  0  0  0  0  0  0  0  0  0  0
   -0.4855   -8.8615   32.4076 H   0  0  0  0  0  0  0  0  0  0  0  0
   -1.9330   -9.0251   28.8508 H   0  0  0  0  0  0  0  0  0  0  0  0
   -6.9967   -7.3102   29.7233 H   0  0  0  0  0  0  0  0  0  0  0  0
   -6.4909   -8.6012   30.8264 H   0  0  0  0  0  0  0  0  0  0  0  0
   -7.9635   -8.8082   30.0402 H   0  0  0  0  0  0  0  0  0  0  0  0
   -8.3401   -8.9804   28.1526 H   0  0  0  0  0  0  0  0  0  0  0  0
   -7.3099   -7.5700   27.9152 H   0  0  0  0  0  0  0  0  0  0  0  0
   -7.6077   -8.1727   25.9444 H   0  0  0  0  0  0  0  0  0  0  0  0
   -5.2160   -8.0800   26.8794 H   0  0  0  0  0  0  0  0  0  0  0  0
   -6.9796   -9.5942   24.7703 H   0  0  0  0  0  0  0  0  0  0  0  0
   -8.0400  -10.9004   25.6867 H   0  0  0  0  0  0  0  0  0  0  0  0
   -8.1803   -9.8131   23.1841 H   0  0  0  0  0  0  0  0  0  0  0  0
   -7.1886  -11.9603   22.1398 H   0  0  0  0  0  0  0  0  0  0  0  0
   -9.0998  -11.3435   22.6711 H   0  0  0  0  0  0  0  0  0  0  0  0
  -10.6676  -14.0704   18.5292 H   0  0  0  0  0  0  0  0  0  0  0  0
  -10.1757  -12.5310   17.9326 H   0  0  0  0  0  0  0  0  0  0  0  0
   -9.5261  -14.7158   16.5149 H   0  0  0  0  0  0  0  0  0  0  0  0
   -8.4460  -13.3037   16.5673 H   0  0  0  0  0  0  0  0  0  0  0  0
   -6.9472  -14.3501   17.9317 H   0  0  0  0  0  0  0  0  0  0  0  0
   -7.8390  -15.8752   17.7086 H   0  0  0  0  0  0  0  0  0  0  0  0
   -9.3413  -15.3977   19.4188 H   0  0  0  0  0  0  0  0  0  0  0  0
   -7.7845  -14.9126   20.0497 H   0  0  0  0  0  0  0  0  0  0  0  0
  1  2  1  0
  2  3  2  0
  3  4  1  0
  4  5  1  0
  5  6  2  0
  5  7  1  0
  7  8  1  0
  7  9  1  0
  9 10  1  0
 10 11  1  0
 10 12  1  0
 12 13  1  0
 13 14  1  0
 14 15  1  0
 15 16  2  0
 15 17  1  0
 17 18  1  0
 18 19  1  0
 19 20  1  0
 20 21  1  0
  4 22  2  0
 22 23  1  0
 23  2  1  0
 21 17  1  0
  1 24  1  0
  1 25  1  0
  1 26  1  0
  3 27  1  0
  8 28  1  0
  8 29  1  0
  8 30  1  0
  9 31  1  0
  9 32  1  0
 10 33  1  0
 11 34  1  0
 12 35  1  0
 12 36  1  0
 13 37  1  0
 14 38  1  0
 14 39  1  0
 18 40  1  0
 18 41  1  0
 19 42  1  0
 19 43  1  0
 20 44  1  0
 20 45  1  0
 21 46  1  0
 21 47  1  0
M  END
>  <Energy>  (511) 
644.63487913379845

>  <compound_id>  (511) 
40162

>  <target_id>  (511) 
1

>  <reference_id>  (511) 
30

>  <inspiration_ids>  (511) 
[59, 30]

>  <energy_score>  (511) 
522.8001049796818

>  <distance_score>  (511) 
11.988820472606887

>  <path>  (511) 
/opt/xchem-fragalysis-2/maxwin/BulkDock/SCRATCH/511015/C40162-P30/C40162-P30.minimised.mol

>  <scratch_subdir>  (511) 
/opt/xchem-fragalysis-2/maxwin/BulkDock/SCRATCH/511015/C40162-P30

>  <fragmenstein_runtime>  (511) 
20.56424617767334

>  <fragmenstein_outcome>  (511) 
too moved

>  <fragmenstein_mode>  (511) 
expansion

>  <fragmenstein_error>  (511) 


$$$$
C40167-P59
     RDKit          3D

 52 53  0  0  0  0  0  0  0  0999 V2000
   -3.9091   -2.3498   31.3956 C   0  0  0  0  0  0  0  0  0  0  0  0
   -5.0625   -3.3067   31.0010 C   0  0  0  0  0  0  0  0  0  0  0  0
   -5.9196   -3.9357   29.7099 C   0  0  0  0  0  0  0  0  0  0  0  0
   -6.3640   -5.5022   29.9271 C   0  0  0  0  0  0  0  0  0  0  0  0
   -7.3087   -6.6966   29.0770 C   0  0  0  0  0  0  0  0  0  0  0  0
   -7.0774   -6.8557   27.8987 O   0  0  0  0  0  0  0  0  0  0  0  0
   -8.4334   -7.3341   29.9938 N   0  0  0  0  0  0  0  0  0  0  0  0
   -7.9330   -8.5844   30.6129 C   0  0  0  0  0  0  0  0  0  0  0  0
   -9.7122   -8.3132   29.6019 C   0  0  0  0  0  0  0  0  0  0  0  0
  -11.1880   -8.3491   30.5895 C   0  0  0  0  0  0  0  0  0  0  0  0
  -10.8392   -8.2909   32.0816 C   0  0  0  0  0  0  0  0  0  0  0  0
  -12.1735   -9.5794   30.5437 N   0  0  0  0  0  0  0  0  0  0  0  0
  -13.7018   -9.6390   30.5638 C   0  0  0  0  0  0  0  0  0  0  0  0
  -14.5174   -8.7549   30.5376 O   0  0  0  0  0  0  0  0  0  0  0  0
  -14.2016  -11.2405   30.7620 C   0  0  0  0  0  0  0  0  0  0  0  0
  -15.5355  -12.1521   30.8762 C   0  0  0  0  0  0  0  0  0  0  0  0
  -15.3694  -13.8593   31.0101 C   0  0  0  0  0  0  0  0  0  0  0  0
  -15.7639  -14.8948   30.0086 N   0  0  0  0  0  0  0  0  0  0  0  0
  -17.1574  -15.0952   29.6324 C   0  0  0  0  0  0  0  0  0  0  0  0
  -17.0781  -16.2377   28.6064 C   0  0  0  0  0  0  0  0  0  0  0  0
  -15.8534  -17.0492   29.0164 C   0  0  0  0  0  0  0  0  0  0  0  0
  -15.2190  -16.2517   30.1645 C   0  0  0  0  0  0  0  0  0  0  0  0
   -6.0978   -5.8546   31.4490 N   0  0  0  0  0  0  0  0  0  0  0  0
   -5.0830   -4.2777   32.0584 O   0  0  0  0  0  0  0  0  0  0  0  0
   -3.2685   -2.8438   32.1368 H   0  0  0  0  0  0  0  0  0  0  0  0
   -3.2148   -2.1036   30.5886 H   0  0  0  0  0  0  0  0  0  0  0  0
   -4.2684   -1.4595   31.9187 H   0  0  0  0  0  0  0  0  0  0  0  0
   -5.8894   -3.5626   28.7016 H   0  0  0  0  0  0  0  0  0  0  0  0
   -7.4214   -9.2075   29.8715 H   0  0  0  0  0  0  0  0  0  0  0  0
   -7.1277   -8.2760   31.2883 H   0  0  0  0  0  0  0  0  0  0  0  0
   -8.5982   -9.1454   31.2760 H   0  0  0  0  0  0  0  0  0  0  0  0
   -9.4294   -9.2987   29.2977 H   0  0  0  0  0  0  0  0  0  0  0  0
  -10.0614   -7.8480   28.6686 H   0  0  0  0  0  0  0  0  0  0  0  0
  -11.7711   -7.4659   30.3066 H   0  0  0  0  0  0  0  0  0  0  0  0
  -10.5632   -9.2830   32.4592 H   0  0  0  0  0  0  0  0  0  0  0  0
  -10.0093   -7.6306   32.3084 H   0  0  0  0  0  0  0  0  0  0  0  0
  -11.7078   -7.9608   32.6625 H   0  0  0  0  0  0  0  0  0  0  0  0
  -11.8051  -10.5010   30.6608 H   0  0  0  0  0  0  0  0  0  0  0  0
  -13.7116  -11.7068   29.9103 H   0  0  0  0  0  0  0  0  0  0  0  0
  -13.7665  -11.4163   31.7551 H   0  0  0  0  0  0  0  0  0  0  0  0
  -16.3064  -11.8491   30.1607 H   0  0  0  0  0  0  0  0  0  0  0  0
  -15.9828  -11.8617   31.8391 H   0  0  0  0  0  0  0  0  0  0  0  0
  -14.3045  -14.0024   31.2255 H   0  0  0  0  0  0  0  0  0  0  0  0
  -15.8975  -14.1092   31.9402 H   0  0  0  0  0  0  0  0  0  0  0  0
  -17.6206  -14.2045   29.1986 H   0  0  0  0  0  0  0  0  0  0  0  0
  -17.7528  -15.4042   30.5001 H   0  0  0  0  0  0  0  0  0  0  0  0
  -17.9895  -16.8436   28.6108 H   0  0  0  0  0  0  0  0  0  0  0  0
  -16.9430  -15.8405   27.5942 H   0  0  0  0  0  0  0  0  0  0  0  0
  -16.1329  -18.0539   29.3499 H   0  0  0  0  0  0  0  0  0  0  0  0
  -15.1681  -17.1551   28.1718 H   0  0  0  0  0  0  0  0  0  0  0  0
  -14.1263  -16.2815   30.1108 H   0  0  0  0  0  0  0  0  0  0  0  0
  -15.5243  -16.6752   31.1292 H   0  0  0  0  0  0  0  0  0  0  0  0
  1  2  1  0
  2  3  2  0
  3  4  1  0
  4  5  1  0
  5  6  2  0
  5  7  1  0
  7  8  1  0
  7  9  1  0
  9 10  1  0
 10 11  1  0
 10 12  1  0
 12 13  1  0
 13 14  2  0
 13 15  1  0
 15 16  1  0
 16 17  1  0
 17 18  1  0
 18 19  1  0
 19 20  1  0
 20 21  1  0
 21 22  1  0
  4 23  2  0
 23 24  1  0
 24  2  1  0
 22 18  1  0
  1 25  1  0
  1 26  1  0
  1 27  1  0
  3 28  1  0
  8 29  1  0
  8 30  1  0
  8 31  1  0
  9 32  1  0
  9 33  1  0
 10 34  1  0
 11 35  1  0
 11 36  1  0
 11 37  1  0
 12 38  1  0
 15 39  1  0
 15 40  1  0
 16 41  1  0
 16 42  1  0
 17 43  1  0
 17 44  1  0
 19 45  1  0
 19 46  1  0
 20 47  1  0
 20 48  1  0
 21 49  1  0
 21 50  1  0
 22 51  1  0
 22 52  1  0
M  END
>  <Energy>  (512) 
369.1450163594921

>  <compound_id>  (512) 
40167

>  <target_id>  (512) 
1

>  <reference_id>  (512) 
59

>  <inspiration_ids>  (512) 
[59, 30]

>  <energy_score>  (512) 
279.6560685150554

>  <distance_score>  (512) 
14.656918427076052

>  <path>  (512) 
/opt/xchem-fragalysis-2/maxwin/BulkDock/SCRATCH/511015/C40167-P59/C40167-P59.minimised.mol

>  <scratch_subdir>  (512) 
/opt/xchem-fragalysis-2/maxwin/BulkDock/SCRATCH/511015/C40167-P59

>  <fragmenstein_runtime>  (512) 
15.846224308013916

>  <fragmenstein_outcome>  (512) 
too moved

>  <fragmenstein_mode>  (512) 
expansion

>  <fragmenstein_error>  (512) 


$$$$
C40167-P30
     RDKit          3D

 52 53  0  0  0  0  0  0  0  0999 V2000
   -0.9044    1.3721   27.2189 C   0  0  0  0  0  0  0  0  0  0  0  0
   -1.4964    0.2245   27.9207 C   0  0  0  0  0  0  0  0  0  0  0  0
   -2.1860   -0.8945   27.5237 C   0  0  0  0  0  0  0  0  0  0  0  0
   -2.4747   -1.5721   28.7242 C   0  0  0  0  0  0  0  0  0  0  0  0
   -3.1162   -3.0132   28.9785 C   0  0  0  0  0  0  0  0  0  0  0  0
   -2.2105   -3.8234   29.1992 O   0  0  0  0  0  0  0  0  0  0  0  0
   -5.0166   -3.4007   28.7971 N   0  0  0  0  0  0  0  0  0  0  0  0
   -5.7797   -3.2962   30.3054 C   0  0  0  0  0  0  0  0  0  0  0  0
   -6.0137   -5.1159   28.7640 C   0  0  0  0  0  0  0  0  0  0  0  0
   -6.5572   -6.6814   27.5948 C   0  0  0  0  0  0  0  0  0  0  0  0
   -8.0995   -6.6129   27.6994 C   0  0  0  0  0  0  0  0  0  0  0  0
   -6.3971   -8.5398   27.3576 N   0  0  0  0  0  0  0  0  0  0  0  0
   -6.3349   -9.5268   25.8845 C   0  0  0  0  0  0  0  0  0  0  0  0
   -6.3018   -9.0710   24.7613 O   0  0  0  0  0  0  0  0  0  0  0  0
   -6.3779  -11.5335   25.7972 C   0  0  0  0  0  0  0  0  0  0  0  0
   -7.0703  -13.4335   26.0226 C   0  0  0  0  0  0  0  0  0  0  0  0
   -7.6575  -15.1197   24.9578 C   0  0  0  0  0  0  0  0  0  0  0  0
   -7.4190  -16.6403   23.5968 N   0  0  0  0  0  0  0  0  0  0  0  0
   -7.7593  -17.0640   21.8976 C   0  0  0  0  0  0  0  0  0  0  0  0
   -8.2147  -18.5290   21.7194 C   0  0  0  0  0  0  0  0  0  0  0  0
   -7.2962  -19.2528   22.6041 C   0  0  0  0  0  0  0  0  0  0  0  0
   -6.6257  -18.1232   23.4281 C   0  0  0  0  0  0  0  0  0  0  0  0
   -1.9315   -0.9285   29.7838 N   0  0  0  0  0  0  0  0  0  0  0  0
   -1.3471    0.2105   29.2698 O   0  0  0  0  0  0  0  0  0  0  0  0
   -1.4290    1.5649   26.2786 H   0  0  0  0  0  0  0  0  0  0  0  0
   -0.9704    2.2797   27.8276 H   0  0  0  0  0  0  0  0  0  0  0  0
    0.1504    1.1835   26.9997 H   0  0  0  0  0  0  0  0  0  0  0  0
   -2.4451   -1.1976   26.5249 H   0  0  0  0  0  0  0  0  0  0  0  0
   -6.8523   -3.1554   30.1714 H   0  0  0  0  0  0  0  0  0  0  0  0
   -5.2941   -2.5662   30.9578 H   0  0  0  0  0  0  0  0  0  0  0  0
   -5.5908   -4.1600   30.9072 H   0  0  0  0  0  0  0  0  0  0  0  0
   -6.2832   -5.4506   29.7608 H   0  0  0  0  0  0  0  0  0  0  0  0
   -6.9541   -4.5621   28.5778 H   0  0  0  0  0  0  0  0  0  0  0  0
   -6.3212   -6.4243   26.5865 H   0  0  0  0  0  0  0  0  0  0  0  0
   -8.5543   -7.0751   26.8263 H   0  0  0  0  0  0  0  0  0  0  0  0
   -8.4442   -7.1543   28.5845 H   0  0  0  0  0  0  0  0  0  0  0  0
   -8.4824   -5.5903   27.7261 H   0  0  0  0  0  0  0  0  0  0  0  0
   -6.5026   -9.1477   28.1574 H   0  0  0  0  0  0  0  0  0  0  0  0
   -5.5351  -11.5587   26.5083 H   0  0  0  0  0  0  0  0  0  0  0  0
   -5.9410  -11.6362   24.7880 H   0  0  0  0  0  0  0  0  0  0  0  0
   -6.4561  -13.6916   26.8243 H   0  0  0  0  0  0  0  0  0  0  0  0
   -7.8678  -13.3783   26.8032 H   0  0  0  0  0  0  0  0  0  0  0  0
   -7.8853  -15.7210   25.8534 H   0  0  0  0  0  0  0  0  0  0  0  0
   -8.7336  -15.0740   25.0996 H   0  0  0  0  0  0  0  0  0  0  0  0
   -8.1867  -16.3561   21.2007 H   0  0  0  0  0  0  0  0  0  0  0  0
   -6.7906  -17.1340   21.3502 H   0  0  0  0  0  0  0  0  0  0  0  0
   -8.1338  -18.8579   20.6785 H   0  0  0  0  0  0  0  0  0  0  0  0
   -9.1981  -18.7903   22.0950 H   0  0  0  0  0  0  0  0  0  0  0  0
   -6.5435  -19.8205   22.0441 H   0  0  0  0  0  0  0  0  0  0  0  0
   -7.8331  -19.9693   23.2343 H   0  0  0  0  0  0  0  0  0  0  0  0
   -5.7718  -17.9537   22.7750 H   0  0  0  0  0  0  0  0  0  0  0  0
   -6.4255  -18.7197   24.2877 H   0  0  0  0  0  0  0  0  0  0  0  0
  1  2  1  0
  2  3  2  0
  3  4  1  0
  4  5  1  0
  5  6  2  0
  5  7  1  0
  7  8  1  0
  7  9  1  0
  9 10  1  0
 10 11  1  0
 10 12  1  0
 12 13  1  0
 13 14  2  0
 13 15  1  0
 15 16  1  0
 16 17  1  0
 17 18  1  0
 18 19  1  0
 19 20  1  0
 20 21  1  0
 21 22  1  0
  4 23  2  0
 23 24  1  0
 24  2  1  0
 22 18  1  0
  1 25  1  0
  1 26  1  0
  1 27  1  0
  3 28  1  0
  8 29  1  0
  8 30  1  0
  8 31  1  0
  9 32  1  0
  9 33  1  0
 10 34  1  0
 11 35  1  0
 11 36  1  0
 11 37  1  0
 12 38  1  0
 15 39  1  0
 15 40  1  0
 16 41  1  0
 16 42  1  0
 17 43  1  0
 17 44  1  0
 19 45  1  0
 19 46  1  0
 20 47  1  0
 20 48  1  0
 21 49  1  0
 21 50  1  0
 22 51  1  0
 22 52  1  0
M  END
>  <Energy>  (513) 
1056.08582291881

>  <compound_id>  (513) 
40167

>  <target_id>  (513) 
1

>  <reference_id>  (513) 
30

>  <inspiration_ids>  (513) 
[59, 30]

>  <energy_score>  (513) 
966.5968750743723

>  <distance_score>  (513) 
10.573747325713851

>  <path>  (513) 
/opt/xchem-fragalysis-2/maxwin/BulkDock/SCRATCH/511015/C40167-P30/C40167-P30.minimised.mol

>  <scratch_subdir>  (513) 
/opt/xchem-fragalysis-2/maxwin/BulkDock/SCRATCH/511015/C40167-P30

>  <fragmenstein_runtime>  (513) 
21.164295434951782

>  <fragmenstein_outcome>  (513) 
too moved

>  <fragmenstein_mode>  (513) 
expansion

>  <fragmenstein_error>  (513) 


$$$$
C40168-P59
     RDKit          3D

 43 45  0  0  0  0  0  0  0  0999 V2000
   -6.7925  -18.1661   23.5852 O   0  0  0  0  0  0  0  0  0  0  0  0
   -7.1618  -17.2200   22.9002 C   0  0  0  0  0  0  0  0  0  0  0  0
   -7.0667  -15.2115   23.8887 C   0  0  0  0  0  0  0  0  0  0  0  0
   -5.8925  -13.4524   23.5177 C   0  0  0  0  0  0  0  0  0  0  0  0
   -5.0629  -14.5028   23.5174 C   0  0  0  0  0  0  0  0  0  0  0  0
   -4.9674  -13.3442   23.9197 C   0  0  0  0  0  0  0  0  0  0  0  0
   -5.8686  -12.2540   25.0272 C   0  0  0  0  0  0  0  0  0  0  0  0
   -6.4709  -11.2008   24.7528 C   0  0  0  0  0  0  0  0  0  0  0  0
   -5.4038  -11.5320   24.1263 C   0  0  0  0  0  0  0  0  0  0  0  0
   -3.8105  -10.1077   23.9823 N   0  0  0  0  0  0  0  0  0  0  0  0
   -2.4236   -8.8554   24.8556 C   0  0  0  0  0  0  0  0  0  0  0  0
   -2.2081   -6.9502   25.5141 C   0  0  0  0  0  0  0  0  0  0  0  0
   -2.5542   -7.5393   26.6879 C   0  0  0  0  0  0  0  0  0  0  0  0
   -2.8301   -9.0456   25.6183 C   0  0  0  0  0  0  0  0  0  0  0  0
   -7.8197  -17.4707   21.1406 N   0  0  0  0  0  0  0  0  0  0  0  0
   -8.1966  -19.1164   20.0860 C   0  0  0  0  0  0  0  0  0  0  0  0
   -8.5365  -20.1639   18.2970 C   0  0  0  0  0  0  0  0  0  0  0  0
   -9.5046  -21.1096   16.7466 C   0  0  0  0  0  0  0  0  0  0  0  0
   -9.7680  -21.2192   15.0989 C   0  0  0  0  0  0  0  0  0  0  0  0
  -10.2757  -22.3250   14.3629 C   0  0  0  0  0  0  0  0  0  0  0  0
   -9.9007  -23.2890   15.1408 N   0  0  0  0  0  0  0  0  0  0  0  0
   -9.7062  -22.6996   16.3691 O   0  0  0  0  0  0  0  0  0  0  0  0
   -7.7915  -15.9382   22.7841 H   0  0  0  0  0  0  0  0  0  0  0  0
   -7.6470  -15.0262   24.8542 H   0  0  0  0  0  0  0  0  0  0  0  0
   -4.1151  -15.0008   23.5245 H   0  0  0  0  0  0  0  0  0  0  0  0
   -3.9614  -13.0730   24.1296 H   0  0  0  0  0  0  0  0  0  0  0  0
   -4.2825  -12.1338   25.1029 H   0  0  0  0  0  0  0  0  0  0  0  0
   -7.0880  -10.5749   25.3169 H   0  0  0  0  0  0  0  0  0  0  0  0
   -1.4545   -7.7983   24.4079 H   0  0  0  0  0  0  0  0  0  0  0  0
   -2.0314   -7.4921   24.0846 H   0  0  0  0  0  0  0  0  0  0  0  0
   -1.7985   -6.1203   24.8490 H   0  0  0  0  0  0  0  0  0  0  0  0
   -2.2437   -6.1759   26.2746 H   0  0  0  0  0  0  0  0  0  0  0  0
   -3.4008   -7.2059   27.2898 H   0  0  0  0  0  0  0  0  0  0  0  0
   -1.9281   -7.6194   27.5856 H   0  0  0  0  0  0  0  0  0  0  0  0
   -3.4073   -8.4783   26.4274 H   0  0  0  0  0  0  0  0  0  0  0  0
   -3.7506   -8.8278   26.0648 H   0  0  0  0  0  0  0  0  0  0  0  0
   -7.9849  -16.5788   20.7267 H   0  0  0  0  0  0  0  0  0  0  0  0
   -7.2274  -18.8787   19.6254 H   0  0  0  0  0  0  0  0  0  0  0  0
   -9.1037  -18.5676   19.7957 H   0  0  0  0  0  0  0  0  0  0  0  0
   -7.5444  -20.6116   18.1751 H   0  0  0  0  0  0  0  0  0  0  0  0
   -9.0080  -20.8776   18.9640 H   0  0  0  0  0  0  0  0  0  0  0  0
   -8.7983  -21.4761   14.6048 H   0  0  0  0  0  0  0  0  0  0  0  0
  -10.5270  -22.4580   13.3216 H   0  0  0  0  0  0  0  0  0  0  0  0
  1  2  2  0
  2  3  1  0
  3  4  1  0
  4  5  2  0
  5  6  1  0
  6  7  2  0
  7  8  1  0
  8  9  2  0
  9 10  1  0
 10 11  1  0
 11 12  1  0
 12 13  1  0
 13 14  1  0
  2 15  1  0
 15 16  1  0
 16 17  1  0
 17 18  1  0
 18 19  2  0
 19 20  1  0
 20 21  2  0
 21 22  1  0
  9  4  1  0
 14 10  1  0
 22 18  1  0
  3 23  1  0
  3 24  1  0
  5 25  1  0
  6 26  1  0
  7 27  1  0
  8 28  1  0
 11 29  1  0
 11 30  1  0
 12 31  1  0
 12 32  1  0
 13 33  1  0
 13 34  1  0
 14 35  1  0
 14 36  1  0
 15 37  1  0
 16 38  1  0
 16 39  1  0
 17 40  1  0
 17 41  1  0
 19 42  1  0
 20 43  1  0
M  END
>  <Energy>  (514) 
3611.9897082126931

>  <compound_id>  (514) 
40168

>  <target_id>  (514) 
1

>  <reference_id>  (514) 
59

>  <inspiration_ids>  (514) 
[59, 30]

>  <energy_score>  (514) 
3539.2322078322854

>  <distance_score>  (514) 
9.75712184752153

>  <path>  (514) 
/opt/xchem-fragalysis-2/maxwin/BulkDock/SCRATCH/511015/C40168-P59/C40168-P59.minimised.mol

>  <scratch_subdir>  (514) 
/opt/xchem-fragalysis-2/maxwin/BulkDock/SCRATCH/511015/C40168-P59

>  <fragmenstein_runtime>  (514) 
17.733983755111694

>  <fragmenstein_outcome>  (514) 
too moved

>  <fragmenstein_mode>  (514) 
expansion

>  <fragmenstein_error>  (514) 


$$$$
C40168-P30
     RDKit          3D

 43 45  0  0  0  0  0  0  0  0999 V2000
   -4.4489  -17.1598   17.8894 O   0  0  0  0  0  0  0  0  0  0  0  0
   -4.7253  -17.4224   19.0452 C   0  0  0  0  0  0  0  0  0  0  0  0
   -3.4858  -16.3977   20.4119 C   0  0  0  0  0  0  0  0  0  0  0  0
   -2.3283  -14.6880   20.4822 C   0  0  0  0  0  0  0  0  0  0  0  0
   -1.8002  -15.1844   19.2110 C   0  0  0  0  0  0  0  0  0  0  0  0
   -1.6283  -14.4141   17.9718 C   0  0  0  0  0  0  0  0  0  0  0  0
   -2.0982  -13.1748   17.6670 C   0  0  0  0  0  0  0  0  0  0  0  0
   -2.9021  -12.5551   18.5072 C   0  0  0  0  0  0  0  0  0  0  0  0
   -2.8467  -12.8975   19.9330 C   0  0  0  0  0  0  0  0  0  0  0  0
   -4.0110  -11.3935   20.1754 N   0  0  0  0  0  0  0  0  0  0  0  0
   -3.0846  -10.1979   19.0607 C   0  0  0  0  0  0  0  0  0  0  0  0
   -2.8430   -8.7331   19.5815 C   0  0  0  0  0  0  0  0  0  0  0  0
   -3.4810   -8.2923   21.3393 C   0  0  0  0  0  0  0  0  0  0  0  0
   -3.7923  -10.1758   21.6250 C   0  0  0  0  0  0  0  0  0  0  0  0
   -6.1125  -18.4351   19.5270 N   0  0  0  0  0  0  0  0  0  0  0  0
   -7.5229  -19.2110   18.5001 C   0  0  0  0  0  0  0  0  0  0  0  0
   -8.5096  -20.8223   17.7265 C   0  0  0  0  0  0  0  0  0  0  0  0
   -9.2952  -21.8099   16.0760 C   0  0  0  0  0  0  0  0  0  0  0  0
   -9.8113  -23.0246   15.4274 C   0  0  0  0  0  0  0  0  0  0  0  0
   -9.9302  -22.9419   14.0153 C   0  0  0  0  0  0  0  0  0  0  0  0
   -8.8777  -22.3050   13.5954 N   0  0  0  0  0  0  0  0  0  0  0  0
   -8.1730  -22.1643   14.8182 O   0  0  0  0  0  0  0  0  0  0  0  0
   -4.0963  -16.3838   21.3395 H   0  0  0  0  0  0  0  0  0  0  0  0
   -2.7396  -17.0203   20.8734 H   0  0  0  0  0  0  0  0  0  0  0  0
   -1.8512  -16.1932   19.0526 H   0  0  0  0  0  0  0  0  0  0  0  0
   -0.6209  -14.5606   17.5304 H   0  0  0  0  0  0  0  0  0  0  0  0
   -1.2591  -12.4911   17.6089 H   0  0  0  0  0  0  0  0  0  0  0  0
   -3.7523  -12.0398   18.0683 H   0  0  0  0  0  0  0  0  0  0  0  0
   -3.4288  -10.2237   18.0137 H   0  0  0  0  0  0  0  0  0  0  0  0
   -2.0517  -10.5448   18.8528 H   0  0  0  0  0  0  0  0  0  0  0  0
   -2.6914   -7.9596   18.8219 H   0  0  0  0  0  0  0  0  0  0  0  0
   -1.7237   -8.7386   19.5441 H   0  0  0  0  0  0  0  0  0  0  0  0
   -2.8502   -7.8574   22.0881 H   0  0  0  0  0  0  0  0  0  0  0  0
   -4.3118   -7.6428   21.5994 H   0  0  0  0  0  0  0  0  0  0  0  0
   -4.7700  -10.2452   21.8825 H   0  0  0  0  0  0  0  0  0  0  0  0
   -3.5214  -10.3426   22.6718 H   0  0  0  0  0  0  0  0  0  0  0  0
   -6.1821  -18.4385   20.5407 H   0  0  0  0  0  0  0  0  0  0  0  0
   -7.7518  -18.3459   17.8667 H   0  0  0  0  0  0  0  0  0  0  0  0
   -8.2216  -19.1259   19.3494 H   0  0  0  0  0  0  0  0  0  0  0  0
   -9.2603  -20.0697   17.5835 H   0  0  0  0  0  0  0  0  0  0  0  0
   -7.4794  -21.0379   17.4690 H   0  0  0  0  0  0  0  0  0  0  0  0
  -10.3114  -23.8906   15.7628 H   0  0  0  0  0  0  0  0  0  0  0  0
  -10.5567  -23.4812   13.3221 H   0  0  0  0  0  0  0  0  0  0  0  0
  1  2  2  0
  2  3  1  0
  3  4  1  0
  4  5  2  0
  5  6  1  0
  6  7  2  0
  7  8  1  0
  8  9  2  0
  9 10  1  0
 10 11  1  0
 11 12  1  0
 12 13  1  0
 13 14  1  0
  2 15  1  0
 15 16  1  0
 16 17  1  0
 17 18  1  0
 18 19  2  0
 19 20  1  0
 20 21  2  0
 21 22  1  0
  9  4  1  0
 14 10  1  0
 22 18  1  0
  3 23  1  0
  3 24  1  0
  5 25  1  0
  6 26  1  0
  7 27  1  0
  8 28  1  0
 11 29  1  0
 11 30  1  0
 12 31  1  0
 12 32  1  0
 13 33  1  0
 13 34  1  0
 14 35  1  0
 14 36  1  0
 15 37  1  0
 16 38  1  0
 16 39  1  0
 17 40  1  0
 17 41  1  0
 19 42  1  0
 20 43  1  0
M  END
>  <Energy>  (515) 
1256.055383562036

>  <compound_id>  (515) 
40168

>  <target_id>  (515) 
1

>  <reference_id>  (515) 
30

>  <inspiration_ids>  (515) 
[59, 30]

>  <energy_score>  (515) 
1183.297883181595

>  <distance_score>  (515) 
11.000475962197955

>  <path>  (515) 
/opt/xchem-fragalysis-2/maxwin/BulkDock/SCRATCH/511015/C40168-P30/C40168-P30.minimised.mol

>  <scratch_subdir>  (515) 
/opt/xchem-fragalysis-2/maxwin/BulkDock/SCRATCH/511015/C40168-P30

>  <fragmenstein_runtime>  (515) 
17.653876543045044

>  <fragmenstein_outcome>  (515) 
too moved

>  <fragmenstein_mode>  (515) 
expansion

>  <fragmenstein_error>  (515) 


$$$$
C40169-P59
     RDKit          3D

 46 47  0  0  0  0  0  0  0  0999 V2000
  -11.6217  -14.7686   18.3324 C   0  0  0  0  0  0  0  0  0  0  0  0
  -10.8400  -13.6510   17.6364 C   0  0  0  0  0  0  0  0  0  0  0  0
   -9.4549  -13.3432   18.1211 C   0  0  0  0  0  0  0  0  0  0  0  0
   -8.3682  -12.6877   17.5051 C   0  0  0  0  0  0  0  0  0  0  0  0
   -7.3363  -12.3599   18.4562 C   0  0  0  0  0  0  0  0  0  0  0  0
   -5.5482  -11.9654   18.4197 C   0  0  0  0  0  0  0  0  0  0  0  0
   -4.2977  -11.3070   20.2572 S   0  0  0  0  0  0  0  0  0  0  0  0
   -3.6029  -10.2168   19.5170 O   0  0  0  0  0  0  0  0  0  0  0  0
   -5.5784  -11.6051   20.7767 O   0  0  0  0  0  0  0  0  0  0  0  0
   -4.1573  -10.0324   22.2155 N   0  0  0  0  0  0  0  0  0  0  0  0
   -3.2980   -9.4461   23.9967 C   0  0  0  0  0  0  0  0  0  0  0  0
   -3.0598   -8.5001   26.0155 C   0  0  0  0  0  0  0  0  0  0  0  0
   -4.6138   -8.0563   27.3522 C   0  0  0  0  0  0  0  0  0  0  0  0
   -2.2945   -7.4377   27.5464 C   0  0  0  0  0  0  0  0  0  0  0  0
   -1.3027   -7.8305   28.9608 N   0  0  0  0  0  0  0  0  0  0  0  0
   -0.3025   -8.9014   29.0167 C   0  0  0  0  0  0  0  0  0  0  0  0
    0.2813   -8.8394   30.4224 C   0  0  0  0  0  0  0  0  0  0  0  0
    0.1426   -7.3971   30.8186 C   0  0  0  0  0  0  0  0  0  0  0  0
   -1.1656   -6.9824   30.1643 C   0  0  0  0  0  0  0  0  0  0  0  0
   -7.8106  -13.0545   19.5254 O   0  0  0  0  0  0  0  0  0  0  0  0
   -9.0601  -13.5931   19.3382 N   0  0  0  0  0  0  0  0  0  0  0  0
  -12.4024  -15.1570   17.6705 H   0  0  0  0  0  0  0  0  0  0  0  0
  -10.9901  -15.5910   18.6743 H   0  0  0  0  0  0  0  0  0  0  0  0
  -12.1342  -14.3663   19.2133 H   0  0  0  0  0  0  0  0  0  0  0  0
  -10.8070  -13.8104   16.5600 H   0  0  0  0  0  0  0  0  0  0  0  0
  -11.4297  -12.7301   17.7444 H   0  0  0  0  0  0  0  0  0  0  0  0
   -8.4841  -12.4283   16.4788 H   0  0  0  0  0  0  0  0  0  0  0  0
   -5.4747  -11.1463   17.6855 H   0  0  0  0  0  0  0  0  0  0  0  0
   -5.2380  -12.6419   17.6976 H   0  0  0  0  0  0  0  0  0  0  0  0
   -3.5879   -9.4067   21.6708 H   0  0  0  0  0  0  0  0  0  0  0  0
   -3.4024   -8.6821   23.1280 H   0  0  0  0  0  0  0  0  0  0  0  0
   -2.5050  -10.0650   24.0996 H   0  0  0  0  0  0  0  0  0  0  0  0
   -2.5307   -7.5491   25.7292 H   0  0  0  0  0  0  0  0  0  0  0  0
   -5.5112   -8.6457   27.1438 H   0  0  0  0  0  0  0  0  0  0  0  0
   -5.5973   -7.6000   27.7624 H   0  0  0  0  0  0  0  0  0  0  0  0
   -4.3796   -7.9570   28.3887 H   0  0  0  0  0  0  0  0  0  0  0  0
   -2.3646   -6.4083   27.2306 H   0  0  0  0  0  0  0  0  0  0  0  0
   -2.9771   -7.2414   28.3202 H   0  0  0  0  0  0  0  0  0  0  0  0
    0.5026   -8.7715   28.2899 H   0  0  0  0  0  0  0  0  0  0  0  0
   -0.7333   -9.8959   28.9084 H   0  0  0  0  0  0  0  0  0  0  0  0
    1.3189   -9.1846   30.4576 H   0  0  0  0  0  0  0  0  0  0  0  0
   -0.3082   -9.4684   31.1015 H   0  0  0  0  0  0  0  0  0  0  0  0
    0.9784   -6.8167   30.4087 H   0  0  0  0  0  0  0  0  0  0  0  0
    0.1304   -7.2591   31.9037 H   0  0  0  0  0  0  0  0  0  0  0  0
   -1.9826   -7.1772   30.8586 H   0  0  0  0  0  0  0  0  0  0  0  0
   -1.0430   -5.9164   29.9789 H   0  0  0  0  0  0  0  0  0  0  0  0
  1  2  1  0
  2  3  1  0
  3  4  1  0
  4  5  2  0
  5  6  1  0
  6  7  1  0
  7  8  2  0
  7  9  2  0
  7 10  1  0
 10 11  1  0
 11 12  1  0
 12 13  1  0
 12 14  1  0
 14 15  1  0
 15 16  1  0
 16 17  1  0
 17 18  1  0
 18 19  1  0
  5 20  1  0
 20 21  1  0
 21  3  2  0
 19 15  1  0
  1 22  1  0
  1 23  1  0
  1 24  1  0
  2 25  1  0
  2 26  1  0
  4 27  1  0
  6 28  1  0
  6 29  1  0
 10 30  1  0
 11 31  1  0
 11 32  1  0
 12 33  1  0
 13 34  1  0
 13 35  1  0
 13 36  1  0
 14 37  1  0
 14 38  1  0
 16 39  1  0
 16 40  1  0
 17 41  1  0
 17 42  1  0
 18 43  1  0
 18 44  1  0
 19 45  1  0
 19 46  1  0
M  END
>  <Energy>  (516) 
1142.0224899348534

>  <compound_id>  (516) 
40169

>  <target_id>  (516) 
1

>  <reference_id>  (516) 
59

>  <inspiration_ids>  (516) 
[59, 30]

>  <energy_score>  (516) 
1135.5384502272382

>  <distance_score>  (516) 
11.396698285745481

>  <path>  (516) 
/opt/xchem-fragalysis-2/maxwin/BulkDock/SCRATCH/511015/C40169-P59/C40169-P59.minimised.mol

>  <scratch_subdir>  (516) 
/opt/xchem-fragalysis-2/maxwin/BulkDock/SCRATCH/511015/C40169-P59

>  <fragmenstein_runtime>  (516) 
20.633052587509155

>  <fragmenstein_outcome>  (516) 
too moved

>  <fragmenstein_mode>  (516) 
expansion

>  <fragmenstein_error>  (516) 


$$$$
C40169-P30
     RDKit          3D

 46 47  0  0  0  0  0  0  0  0999 V2000
   -7.7986  -24.5733   17.0563 C   0  0  0  0  0  0  0  0  0  0  0  0
   -6.6602  -24.5142   18.6926 C   0  0  0  0  0  0  0  0  0  0  0  0
   -6.3104  -25.0116   20.1458 C   0  0  0  0  0  0  0  0  0  0  0  0
   -4.9276  -25.4162   20.3784 C   0  0  0  0  0  0  0  0  0  0  0  0
   -4.4155  -24.2743   20.9873 C   0  0  0  0  0  0  0  0  0  0  0  0
   -3.0430  -23.6278   20.9253 C   0  0  0  0  0  0  0  0  0  0  0  0
   -2.9377  -21.8974   21.5055 S   0  0  0  0  0  0  0  0  0  0  0  0
   -3.0171  -21.8888   22.9519 O   0  0  0  0  0  0  0  0  0  0  0  0
   -3.8047  -21.0525   20.7130 O   0  0  0  0  0  0  0  0  0  0  0  0
   -1.2573  -21.3827   21.1692 N   0  0  0  0  0  0  0  0  0  0  0  0
   -0.9807  -19.9182   21.5805 C   0  0  0  0  0  0  0  0  0  0  0  0
    0.4991  -19.3262   21.4275 C   0  0  0  0  0  0  0  0  0  0  0  0
    0.9114  -19.3338   19.9594 C   0  0  0  0  0  0  0  0  0  0  0  0
    0.6444  -17.8246   22.0701 C   0  0  0  0  0  0  0  0  0  0  0  0
    1.9559  -17.1276   22.2112 N   0  0  0  0  0  0  0  0  0  0  0  0
    1.8743  -16.0538   23.2214 C   0  0  0  0  0  0  0  0  0  0  0  0
    3.0295  -15.0990   22.9802 C   0  0  0  0  0  0  0  0  0  0  0  0
    3.4361  -15.3864   21.5491 C   0  0  0  0  0  0  0  0  0  0  0  0
    2.4092  -16.3960   21.0229 C   0  0  0  0  0  0  0  0  0  0  0  0
   -5.4629  -23.7052   21.6612 O   0  0  0  0  0  0  0  0  0  0  0  0
   -6.6660  -24.3501   21.2596 N   0  0  0  0  0  0  0  0  0  0  0  0
   -8.3982  -25.5236   16.6529 H   0  0  0  0  0  0  0  0  0  0  0  0
   -8.5420  -24.0032   16.3270 H   0  0  0  0  0  0  0  0  0  0  0  0
   -7.1818  -23.8541   16.4738 H   0  0  0  0  0  0  0  0  0  0  0  0
   -6.0844  -23.6460   18.4971 H   0  0  0  0  0  0  0  0  0  0  0  0
   -5.9435  -25.3509   18.4403 H   0  0  0  0  0  0  0  0  0  0  0  0
   -4.3270  -26.0300   19.7171 H   0  0  0  0  0  0  0  0  0  0  0  0
   -2.6901  -23.6160   19.8899 H   0  0  0  0  0  0  0  0  0  0  0  0
   -2.3426  -24.2030   21.5386 H   0  0  0  0  0  0  0  0  0  0  0  0
   -0.6281  -21.9970   21.6944 H   0  0  0  0  0  0  0  0  0  0  0  0
   -1.6701  -19.2912   21.0049 H   0  0  0  0  0  0  0  0  0  0  0  0
   -1.2192  -19.8856   22.6488 H   0  0  0  0  0  0  0  0  0  0  0  0
    1.1761  -19.9869   21.9836 H   0  0  0  0  0  0  0  0  0  0  0  0
    0.3259  -18.6113   19.3816 H   0  0  0  0  0  0  0  0  0  0  0  0
    0.7644  -20.3233   19.5145 H   0  0  0  0  0  0  0  0  0  0  0  0
    1.9705  -19.0869   19.8491 H   0  0  0  0  0  0  0  0  0  0  0  0
    0.2872  -17.9647   23.0969 H   0  0  0  0  0  0  0  0  0  0  0  0
   -0.0580  -17.1692   21.5424 H   0  0  0  0  0  0  0  0  0  0  0  0
    1.9617  -16.5027   24.2131 H   0  0  0  0  0  0  0  0  0  0  0  0
    0.9365  -15.5017   23.0938 H   0  0  0  0  0  0  0  0  0  0  0  0
    3.8648  -15.3100   23.6574 H   0  0  0  0  0  0  0  0  0  0  0  0
    2.7335  -14.0566   23.1309 H   0  0  0  0  0  0  0  0  0  0  0  0
    3.4838  -14.4850   20.9331 H   0  0  0  0  0  0  0  0  0  0  0  0
    4.4362  -15.8374   21.5398 H   0  0  0  0  0  0  0  0  0  0  0  0
    1.5801  -15.8775   20.5444 H   0  0  0  0  0  0  0  0  0  0  0  0
    2.8682  -17.0585   20.2845 H   0  0  0  0  0  0  0  0  0  0  0  0
  1  2  1  0
  2  3  1  0
  3  4  1  0
  4  5  2  0
  5  6  1  0
  6  7  1  0
  7  8  2  0
  7  9  2  0
  7 10  1  0
 10 11  1  0
 11 12  1  0
 12 13  1  0
 12 14  1  0
 14 15  1  0
 15 16  1  0
 16 17  1  0
 17 18  1  0
 18 19  1  0
  5 20  1  0
 20 21  1  0
 21  3  2  0
 19 15  1  0
  1 22  1  0
  1 23  1  0
  1 24  1  0
  2 25  1  0
  2 26  1  0
  4 27  1  0
  6 28  1  0
  6 29  1  0
 10 30  1  0
 11 31  1  0
 11 32  1  0
 12 33  1  0
 13 34  1  0
 13 35  1  0
 13 36  1  0
 14 37  1  0
 14 38  1  0
 16 39  1  0
 16 40  1  0
 17 41  1  0
 17 42  1  0
 18 43  1  0
 18 44  1  0
 19 45  1  0
 19 46  1  0
M  END
>  <Energy>  (517) 
190.50860911932239

>  <compound_id>  (517) 
40169

>  <target_id>  (517) 
1

>  <reference_id>  (517) 
30

>  <inspiration_ids>  (517) 
[59, 30]

>  <energy_score>  (517) 
184.02456941170664

>  <distance_score>  (517) 
13.973139434812737

>  <path>  (517) 
/opt/xchem-fragalysis-2/maxwin/BulkDock/SCRATCH/511015/C40169-P30/C40169-P30.minimised.mol

>  <scratch_subdir>  (517) 
/opt/xchem-fragalysis-2/maxwin/BulkDock/SCRATCH/511015/C40169-P30

>  <fragmenstein_runtime>  (517) 
18.466516494750977

>  <fragmenstein_outcome>  (517) 
too moved

>  <fragmenstein_mode>  (517) 
expansion

>  <fragmenstein_error>  (517) 


$$$$
C40170-P59
     RDKit          3D

 43 44  0  0  0  0  0  0  0  0999 V2000
  -13.8711  -19.1902   19.8911 C   0  0  0  0  0  0  0  0  0  0  0  0
  -12.7173  -19.8295   20.5484 C   0  0  0  0  0  0  0  0  0  0  0  0
  -11.5161  -19.2285   20.9675 C   0  0  0  0  0  0  0  0  0  0  0  0
  -10.7498  -20.2761   21.4168 C   0  0  0  0  0  0  0  0  0  0  0  0
   -9.4081  -20.4658   21.9689 C   0  0  0  0  0  0  0  0  0  0  0  0
   -8.2456  -19.1948   21.4893 S   0  0  0  0  0  0  0  0  0  0  0  0
   -6.9253  -19.7789   21.5951 O   0  0  0  0  0  0  0  0  0  0  0  0
   -8.6529  -18.5856   20.2409 O   0  0  0  0  0  0  0  0  0  0  0  0
   -8.4159  -17.9765   22.6850 N   0  0  0  0  0  0  0  0  0  0  0  0
   -8.0298  -18.1826   24.1334 C   0  0  0  0  0  0  0  0  0  0  0  0
   -8.8075  -17.2728   25.2491 C   0  0  0  0  0  0  0  0  0  0  0  0
  -10.2439  -16.9370   24.8530 C   0  0  0  0  0  0  0  0  0  0  0  0
   -7.9645  -16.0743   25.9768 C   0  0  0  0  0  0  0  0  0  0  0  0
   -8.5656  -14.9336   26.7312 N   0  0  0  0  0  0  0  0  0  0  0  0
   -7.6061  -14.1118   27.5108 C   0  0  0  0  0  0  0  0  0  0  0  0
   -8.4391  -13.1505   28.3464 C   0  0  0  0  0  0  0  0  0  0  0  0
   -9.8036  -13.8093   28.3739 C   0  0  0  0  0  0  0  0  0  0  0  0
   -9.6167  -15.1785   27.7004 C   0  0  0  0  0  0  0  0  0  0  0  0
  -11.4677  -21.4249   21.3147 O   0  0  0  0  0  0  0  0  0  0  0  0
  -12.6927  -21.1450   20.7747 N   0  0  0  0  0  0  0  0  0  0  0  0
  -13.8503  -19.3962   18.8223 H   0  0  0  0  0  0  0  0  0  0  0  0
  -14.8178  -19.5316   20.3164 H   0  0  0  0  0  0  0  0  0  0  0  0
  -13.8345  -18.1027   20.0164 H   0  0  0  0  0  0  0  0  0  0  0  0
  -11.2373  -18.1853   20.9077 H   0  0  0  0  0  0  0  0  0  0  0  0
   -9.4326  -20.5215   23.0593 H   0  0  0  0  0  0  0  0  0  0  0  0
   -8.9820  -21.4088   21.6184 H   0  0  0  0  0  0  0  0  0  0  0  0
   -7.8661  -17.1726   22.3347 H   0  0  0  0  0  0  0  0  0  0  0  0
   -8.2360  -19.2270   24.3899 H   0  0  0  0  0  0  0  0  0  0  0  0
   -6.9518  -18.0220   24.2396 H   0  0  0  0  0  0  0  0  0  0  0  0
   -8.9271  -17.9878   26.0801 H   0  0  0  0  0  0  0  0  0  0  0  0
  -10.9045  -17.0262   25.7216 H   0  0  0  0  0  0  0  0  0  0  0  0
  -10.3586  -15.9231   24.4752 H   0  0  0  0  0  0  0  0  0  0  0  0
  -10.6342  -17.6362   24.1068 H   0  0  0  0  0  0  0  0  0  0  0  0
   -7.3168  -16.6208   26.6727 H   0  0  0  0  0  0  0  0  0  0  0  0
   -7.3170  -15.6585   25.2031 H   0  0  0  0  0  0  0  0  0  0  0  0
   -7.0407  -14.7461   28.2023 H   0  0  0  0  0  0  0  0  0  0  0  0
   -6.9336  -13.5409   26.8769 H   0  0  0  0  0  0  0  0  0  0  0  0
   -8.5007  -12.1557   27.8928 H   0  0  0  0  0  0  0  0  0  0  0  0
   -8.0229  -13.0383   29.3529 H   0  0  0  0  0  0  0  0  0  0  0  0
  -10.1907  -13.9124   29.3925 H   0  0  0  0  0  0  0  0  0  0  0  0
  -10.5184  -13.2035   27.8035 H   0  0  0  0  0  0  0  0  0  0  0  0
  -10.5563  -15.4968   27.2453 H   0  0  0  0  0  0  0  0  0  0  0  0
   -9.3132  -15.9294   28.4402 H   0  0  0  0  0  0  0  0  0  0  0  0
  1  2  1  0
  2  3  1  0
  3  4  2  0
  4  5  1  0
  5  6  1  0
  6  7  2  0
  6  8  2  0
  6  9  1  0
  9 10  1  0
 10 11  1  0
 11 12  1  0
 11 13  1  0
 13 14  1  0
 14 15  1  0
 15 16  1  0
 16 17  1  0
 17 18  1  0
  4 19  1  0
 19 20  1  0
 20  2  2  0
 18 14  1  0
  1 21  1  0
  1 22  1  0
  1 23  1  0
  3 24  1  0
  5 25  1  0
  5 26  1  0
  9 27  1  0
 10 28  1  0
 10 29  1  0
 11 30  1  0
 12 31  1  0
 12 32  1  0
 12 33  1  0
 13 34  1  0
 13 35  1  0
 15 36  1  0
 15 37  1  0
 16 38  1  0
 16 39  1  0
 17 40  1  0
 17 41  1  0
 18 42  1  0
 18 43  1  0
M  END
>  <Energy>  (518) 
-6.0188263051340307

>  <compound_id>  (518) 
40170

>  <target_id>  (518) 
1

>  <reference_id>  (518) 
59

>  <inspiration_ids>  (518) 
[59, 30]

>  <energy_score>  (518) 
-20.25295998892463

>  <distance_score>  (518) 
12.681106175304667

>  <path>  (518) 
/opt/xchem-fragalysis-2/maxwin/BulkDock/SCRATCH/511015/C40170-P59/C40170-P59.minimised.mol

>  <scratch_subdir>  (518) 
/opt/xchem-fragalysis-2/maxwin/BulkDock/SCRATCH/511015/C40170-P59

>  <fragmenstein_runtime>  (518) 
15.422614336013794

>  <fragmenstein_outcome>  (518) 
too moved

>  <fragmenstein_mode>  (518) 
expansion

>  <fragmenstein_error>  (518) 


$$$$
C40170-P30
     RDKit          3D

 43 44  0  0  0  0  0  0  0  0999 V2000
   -8.6433  -19.5284   19.4247 C   0  0  0  0  0  0  0  0  0  0  0  0
   -9.2504  -18.1813   19.3277 C   0  0  0  0  0  0  0  0  0  0  0  0
   -8.8394  -17.1103   18.5131 C   0  0  0  0  0  0  0  0  0  0  0  0
   -9.5272  -15.9927   18.9583 C   0  0  0  0  0  0  0  0  0  0  0  0
   -9.5275  -14.4763   18.7576 C   0  0  0  0  0  0  0  0  0  0  0  0
   -8.5798  -13.7244   17.3422 S   0  0  0  0  0  0  0  0  0  0  0  0
   -7.7811  -14.7207   16.6455 O   0  0  0  0  0  0  0  0  0  0  0  0
   -9.5744  -12.9976   16.5816 O   0  0  0  0  0  0  0  0  0  0  0  0
   -7.3711  -12.2621   18.2196 N   0  0  0  0  0  0  0  0  0  0  0  0
   -5.5750  -12.2943   18.0182 C   0  0  0  0  0  0  0  0  0  0  0  0
   -3.8961  -11.5053   18.3407 C   0  0  0  0  0  0  0  0  0  0  0  0
   -2.6791  -12.5103   18.2841 C   0  0  0  0  0  0  0  0  0  0  0  0
   -2.9204  -10.0196   18.1960 C   0  0  0  0  0  0  0  0  0  0  0  0
   -2.8359   -8.8119   17.3359 N   0  0  0  0  0  0  0  0  0  0  0  0
   -1.9811   -7.8474   18.0598 C   0  0  0  0  0  0  0  0  0  0  0  0
   -1.9671   -6.5983   17.2027 C   0  0  0  0  0  0  0  0  0  0  0  0
   -2.1704   -7.1535   15.8138 C   0  0  0  0  0  0  0  0  0  0  0  0
   -2.1724   -8.6696   16.0439 C   0  0  0  0  0  0  0  0  0  0  0  0
  -10.4504  -16.4534   19.8675 O   0  0  0  0  0  0  0  0  0  0  0  0
  -10.2769  -17.8124   20.0959 N   0  0  0  0  0  0  0  0  0  0  0  0
   -9.1338  -20.1382   20.1888 H   0  0  0  0  0  0  0  0  0  0  0  0
   -7.5919  -19.4342   19.7196 H   0  0  0  0  0  0  0  0  0  0  0  0
   -8.6629  -20.0477   18.4670 H   0  0  0  0  0  0  0  0  0  0  0  0
   -8.0884  -17.1506   17.7428 H   0  0  0  0  0  0  0  0  0  0  0  0
   -9.2005  -13.9652   19.6650 H   0  0  0  0  0  0  0  0  0  0  0  0
  -10.5661  -14.1623   18.5927 H   0  0  0  0  0  0  0  0  0  0  0  0
   -7.6343  -12.1990   19.2172 H   0  0  0  0  0  0  0  0  0  0  0  0
   -5.4748  -13.1314   17.3271 H   0  0  0  0  0  0  0  0  0  0  0  0
   -5.5721  -12.6802   19.0277 H   0  0  0  0  0  0  0  0  0  0  0  0
   -4.0571  -11.4685   19.4256 H   0  0  0  0  0  0  0  0  0  0  0  0
   -2.5161  -12.8881   19.2759 H   0  0  0  0  0  0  0  0  0  0  0  0
   -2.6988  -13.3265   17.5594 H   0  0  0  0  0  0  0  0  0  0  0  0
   -1.7048  -12.0580   18.1330 H   0  0  0  0  0  0  0  0  0  0  0  0
   -3.1015   -9.6100   19.1985 H   0  0  0  0  0  0  0  0  0  0  0  0
   -1.8745  -10.3033   18.3157 H   0  0  0  0  0  0  0  0  0  0  0  0
   -2.4188   -7.7157   19.0262 H   0  0  0  0  0  0  0  0  0  0  0  0
   -0.9574   -8.2209   18.2034 H   0  0  0  0  0  0  0  0  0  0  0  0
   -1.0157   -6.0640   17.2778 H   0  0  0  0  0  0  0  0  0  0  0  0
   -2.7848   -5.9135   17.4437 H   0  0  0  0  0  0  0  0  0  0  0  0
   -3.1087   -6.7874   15.3932 H   0  0  0  0  0  0  0  0  0  0  0  0
   -1.3656   -6.8523   15.1346 H   0  0  0  0  0  0  0  0  0  0  0  0
   -1.1175   -8.8968   16.0348 H   0  0  0  0  0  0  0  0  0  0  0  0
   -2.5644   -9.2286   15.2069 H   0  0  0  0  0  0  0  0  0  0  0  0
  1  2  1  0
  2  3  1  0
  3  4  2  0
  4  5  1  0
  5  6  1  0
  6  7  2  0
  6  8  2  0
  6  9  1  0
  9 10  1  0
 10 11  1  0
 11 12  1  0
 11 13  1  0
 13 14  1  0
 14 15  1  0
 15 16  1  0
 16 17  1  0
 17 18  1  0
  4 19  1  0
 19 20  1  0
 20  2  2  0
 18 14  1  0
  1 21  1  0
  1 22  1  0
  1 23  1  0
  3 24  1  0
  5 25  1  0
  5 26  1  0
  9 27  1  0
 10 28  1  0
 10 29  1  0
 11 30  1  0
 12 31  1  0
 12 32  1  0
 12 33  1  0
 13 34  1  0
 13 35  1  0
 15 36  1  0
 15 37  1  0
 16 38  1  0
 16 39  1  0
 17 40  1  0
 17 41  1  0
 18 42  1  0
 18 43  1  0
M  END
>  <Energy>  (519) 
216.81846856449931

>  <compound_id>  (519) 
40170

>  <target_id>  (519) 
1

>  <reference_id>  (519) 
30

>  <inspiration_ids>  (519) 
[59, 30]

>  <energy_score>  (519) 
202.58433488070918

>  <distance_score>  (519) 
13.045670814643241

>  <path>  (519) 
/opt/xchem-fragalysis-2/maxwin/BulkDock/SCRATCH/511015/C40170-P30/C40170-P30.minimised.mol

>  <scratch_subdir>  (519) 
/opt/xchem-fragalysis-2/maxwin/BulkDock/SCRATCH/511015/C40170-P30

>  <fragmenstein_runtime>  (519) 
11.056588649749756

>  <fragmenstein_outcome>  (519) 
too moved

>  <fragmenstein_mode>  (519) 
expansion

>  <fragmenstein_error>  (519) 


$$$$
C40175-P59
     RDKit          3D

 46 47  0  0  0  0  0  0  0  0999 V2000
   -9.1502  -16.7356   19.1800 C   0  0  0  0  0  0  0  0  0  0  0  0
   -8.8368  -18.1808   19.2430 C   0  0  0  0  0  0  0  0  0  0  0  0
   -7.3699  -18.6647   19.8421 C   0  0  0  0  0  0  0  0  0  0  0  0
   -6.2726  -17.8657   20.4592 N   0  0  0  0  0  0  0  0  0  0  0  0
   -5.9026  -17.6459   21.9077 C   0  0  0  0  0  0  0  0  0  0  0  0
   -6.4525  -18.0161   22.9193 O   0  0  0  0  0  0  0  0  0  0  0  0
   -4.3356  -16.4420   22.2004 C   0  0  0  0  0  0  0  0  0  0  0  0
   -3.6824  -15.2647   23.8647 C   0  0  0  0  0  0  0  0  0  0  0  0
   -2.4427  -14.4392   25.3749 C   0  0  0  0  0  0  0  0  0  0  0  0
   -2.1448  -14.2579   27.1140 N   0  0  0  0  0  0  0  0  0  0  0  0
   -1.4401  -13.0866   27.6193 C   0  0  0  0  0  0  0  0  0  0  0  0
   -1.1819  -13.3115   29.0975 C   0  0  0  0  0  0  0  0  0  0  0  0
   -0.9634  -14.8020   29.1479 C   0  0  0  0  0  0  0  0  0  0  0  0
   -1.9304  -15.3607   28.0963 C   0  0  0  0  0  0  0  0  0  0  0  0
   -9.2954  -18.8125   17.9692 N   0  0  0  0  0  0  0  0  0  0  0  0
   -9.2598  -20.2931   17.4836 C   0  0  0  0  0  0  0  0  0  0  0  0
   -8.9172  -21.1590   18.1318 O   0  0  0  0  0  0  0  0  0  0  0  0
   -9.8810  -20.9543   15.7858 C   0  0  0  0  0  0  0  0  0  0  0  0
  -10.3563  -20.0543   14.8486 N   0  0  0  0  0  0  0  0  0  0  0  0
  -10.6761  -20.6392   13.6550 O   0  0  0  0  0  0  0  0  0  0  0  0
  -10.2225  -21.8869   13.6196 C   0  0  0  0  0  0  0  0  0  0  0  0
   -9.8113  -22.2390   14.8866 C   0  0  0  0  0  0  0  0  0  0  0  0
   -9.7768  -23.9140   14.9823 Cl  0  0  0  0  0  0  0  0  0  0  0  0
   -8.7383  -16.2636   18.2900 H   0  0  0  0  0  0  0  0  0  0  0  0
   -8.7629  -16.2988   20.0820 H   0  0  0  0  0  0  0  0  0  0  0  0
  -10.2328  -16.5705   19.1532 H   0  0  0  0  0  0  0  0  0  0  0  0
   -9.5345  -18.6158   19.9728 H   0  0  0  0  0  0  0  0  0  0  0  0
   -6.8604  -19.1779   19.0276 H   0  0  0  0  0  0  0  0  0  0  0  0
   -7.6201  -19.3738   20.6370 H   0  0  0  0  0  0  0  0  0  0  0  0
   -5.5534  -17.4945   19.8766 H   0  0  0  0  0  0  0  0  0  0  0  0
   -3.6478  -16.6788   21.3561 H   0  0  0  0  0  0  0  0  0  0  0  0
   -4.8003  -15.7787   21.6308 H   0  0  0  0  0  0  0  0  0  0  0  0
   -3.0385  -14.6658   23.3139 H   0  0  0  0  0  0  0  0  0  0  0  0
   -3.2132  -16.0355   24.4300 H   0  0  0  0  0  0  0  0  0  0  0  0
   -2.6550  -13.3628   25.5416 H   0  0  0  0  0  0  0  0  0  0  0  0
   -2.7460  -15.3484   25.8606 H   0  0  0  0  0  0  0  0  0  0  0  0
   -2.0916  -12.2183   27.5480 H   0  0  0  0  0  0  0  0  0  0  0  0
   -0.4678  -12.9861   27.1329 H   0  0  0  0  0  0  0  0  0  0  0  0
   -2.0566  -13.0352   29.6980 H   0  0  0  0  0  0  0  0  0  0  0  0
   -0.3211  -12.7463   29.4661 H   0  0  0  0  0  0  0  0  0  0  0  0
    0.0714  -15.0389   28.8733 H   0  0  0  0  0  0  0  0  0  0  0  0
   -1.1523  -15.2134   30.1441 H   0  0  0  0  0  0  0  0  0  0  0  0
   -1.5807  -16.3119   27.6798 H   0  0  0  0  0  0  0  0  0  0  0  0
   -2.8472  -15.6193   28.6302 H   0  0  0  0  0  0  0  0  0  0  0  0
   -9.7144  -18.2471   17.2430 H   0  0  0  0  0  0  0  0  0  0  0  0
  -10.3865  -22.4220   12.6971 H   0  0  0  0  0  0  0  0  0  0  0  0
  1  2  1  0
  2  3  1  0
  3  4  1  0
  4  5  1  0
  5  6  2  0
  5  7  1  0
  7  8  1  0
  8  9  1  0
  9 10  1  0
 10 11  1  0
 11 12  1  0
 12 13  1  0
 13 14  1  0
  2 15  1  0
 15 16  1  0
 16 17  2  0
 16 18  1  0
 18 19  2  0
 19 20  1  0
 20 21  1  0
 21 22  2  0
 22 23  1  0
 14 10  1  0
 22 18  1  0
  1 24  1  0
  1 25  1  0
  1 26  1  0
  2 27  1  0
  3 28  1  0
  3 29  1  0
  4 30  1  0
  7 31  1  0
  7 32  1  0
  8 33  1  0
  8 34  1  0
  9 35  1  0
  9 36  1  0
 11 37  1  0
 11 38  1  0
 12 39  1  0
 12 40  1  0
 13 41  1  0
 13 42  1  0
 14 43  1  0
 14 44  1  0
 15 45  1  0
 21 46  1  0
M  END
>  <Energy>  (520) 
596.0462645337667

>  <compound_id>  (520) 
40175

>  <target_id>  (520) 
1

>  <reference_id>  (520) 
59

>  <inspiration_ids>  (520) 
[59, 30]

>  <energy_score>  (520) 
557.6646808033457

>  <distance_score>  (520) 
11.66319116632029

>  <path>  (520) 
/opt/xchem-fragalysis-2/maxwin/BulkDock/SCRATCH/511015/C40175-P59/C40175-P59.minimised.mol

>  <scratch_subdir>  (520) 
/opt/xchem-fragalysis-2/maxwin/BulkDock/SCRATCH/511015/C40175-P59

>  <fragmenstein_runtime>  (520) 
16.11276865005493

>  <fragmenstein_outcome>  (520) 
too moved

>  <fragmenstein_mode>  (520) 
expansion

>  <fragmenstein_error>  (520) 


$$$$
C40175-P30
     RDKit          3D

 46 47  0  0  0  0  0  0  0  0999 V2000
   -9.3164  -20.3335   19.8306 C   0  0  0  0  0  0  0  0  0  0  0  0
   -8.7150  -20.3078   18.2158 C   0  0  0  0  0  0  0  0  0  0  0  0
   -8.1568  -18.5474   18.8177 C   0  0  0  0  0  0  0  0  0  0  0  0
   -8.2336  -17.8150   20.5018 N   0  0  0  0  0  0  0  0  0  0  0  0
   -7.0485  -17.5162   21.6058 C   0  0  0  0  0  0  0  0  0  0  0  0
   -5.8924  -17.8163   21.5188 O   0  0  0  0  0  0  0  0  0  0  0  0
   -7.3806  -16.5504   23.3510 C   0  0  0  0  0  0  0  0  0  0  0  0
   -6.5945  -14.5418   23.9221 C   0  0  0  0  0  0  0  0  0  0  0  0
   -5.6485  -12.5230   23.9037 C   0  0  0  0  0  0  0  0  0  0  0  0
   -4.0791  -11.0969   23.8851 N   0  0  0  0  0  0  0  0  0  0  0  0
   -3.1273   -9.3699   23.9439 C   0  0  0  0  0  0  0  0  0  0  0  0
   -3.1270   -7.9126   23.4239 C   0  0  0  0  0  0  0  0  0  0  0  0
   -3.7211   -8.2388   22.1946 C   0  0  0  0  0  0  0  0  0  0  0  0
   -3.9528  -10.0343   22.3457 C   0  0  0  0  0  0  0  0  0  0  0  0
   -9.5371  -20.8102   16.5362 N   0  0  0  0  0  0  0  0  0  0  0  0
   -9.4396  -22.3181   15.5721 C   0  0  0  0  0  0  0  0  0  0  0  0
   -8.8960  -23.3585   15.8363 O   0  0  0  0  0  0  0  0  0  0  0  0
  -10.0738  -22.4245   14.2117 C   0  0  0  0  0  0  0  0  0  0  0  0
   -9.8619  -21.6959   13.1252 N   0  0  0  0  0  0  0  0  0  0  0  0
  -10.0899  -22.4721   12.0242 O   0  0  0  0  0  0  0  0  0  0  0  0
  -10.5501  -23.6749   12.3732 C   0  0  0  0  0  0  0  0  0  0  0  0
  -10.5117  -23.7603   13.7269 C   0  0  0  0  0  0  0  0  0  0  0  0
  -10.7681  -25.2453   14.5302 Cl  0  0  0  0  0  0  0  0  0  0  0  0
   -8.5759  -20.0267   20.5784 H   0  0  0  0  0  0  0  0  0  0  0  0
  -10.1266  -19.5924   19.9459 H   0  0  0  0  0  0  0  0  0  0  0  0
   -9.6295  -21.3001   20.2461 H   0  0  0  0  0  0  0  0  0  0  0  0
   -7.7472  -20.7235   17.9910 H   0  0  0  0  0  0  0  0  0  0  0  0
   -8.7189  -17.8269   18.2188 H   0  0  0  0  0  0  0  0  0  0  0  0
   -7.0839  -18.5044   18.6271 H   0  0  0  0  0  0  0  0  0  0  0  0
   -9.0864  -17.3751   20.8066 H   0  0  0  0  0  0  0  0  0  0  0  0
   -8.2590  -16.6463   22.7983 H   0  0  0  0  0  0  0  0  0  0  0  0
   -6.7887  -17.3825   23.7802 H   0  0  0  0  0  0  0  0  0  0  0  0
   -5.4680  -14.9009   23.8137 H   0  0  0  0  0  0  0  0  0  0  0  0
   -7.1555  -14.5839   24.9159 H   0  0  0  0  0  0  0  0  0  0  0  0
   -4.7578  -13.0353   24.0929 H   0  0  0  0  0  0  0  0  0  0  0  0
   -6.1127  -12.0940   24.7972 H   0  0  0  0  0  0  0  0  0  0  0  0
   -2.8469   -8.8908   24.9491 H   0  0  0  0  0  0  0  0  0  0  0  0
   -2.1093   -9.6420   23.9460 H   0  0  0  0  0  0  0  0  0  0  0  0
   -2.1272   -7.4731   23.3452 H   0  0  0  0  0  0  0  0  0  0  0  0
   -3.7134   -7.1469   23.9188 H   0  0  0  0  0  0  0  0  0  0  0  0
   -4.5091   -7.5265   22.0114 H   0  0  0  0  0  0  0  0  0  0  0  0
   -3.2443   -7.7926   21.3189 H   0  0  0  0  0  0  0  0  0  0  0  0
   -3.7624  -10.5079   21.3999 H   0  0  0  0  0  0  0  0  0  0  0  0
   -4.8962  -10.2163   22.0684 H   0  0  0  0  0  0  0  0  0  0  0  0
   -9.9918  -20.0889   16.0008 H   0  0  0  0  0  0  0  0  0  0  0  0
  -10.7815  -24.3636   11.5764 H   0  0  0  0  0  0  0  0  0  0  0  0
  1  2  1  0
  2  3  1  0
  3  4  1  0
  4  5  1  0
  5  6  2  0
  5  7  1  0
  7  8  1  0
  8  9  1  0
  9 10  1  0
 10 11  1  0
 11 12  1  0
 12 13  1  0
 13 14  1  0
  2 15  1  0
 15 16  1  0
 16 17  2  0
 16 18  1  0
 18 19  2  0
 19 20  1  0
 20 21  1  0
 21 22  2  0
 22 23  1  0
 14 10  1  0
 22 18  1  0
  1 24  1  0
  1 25  1  0
  1 26  1  0
  2 27  1  0
  3 28  1  0
  3 29  1  0
  4 30  1  0
  7 31  1  0
  7 32  1  0
  8 33  1  0
  8 34  1  0
  9 35  1  0
  9 36  1  0
 11 37  1  0
 11 38  1  0
 12 39  1  0
 12 40  1  0
 13 41  1  0
 13 42  1  0
 14 43  1  0
 14 44  1  0
 15 45  1  0
 21 46  1  0
M  END
>  <Energy>  (521) 
1272.5584179172388

>  <compound_id>  (521) 
40175

>  <target_id>  (521) 
1

>  <reference_id>  (521) 
30

>  <inspiration_ids>  (521) 
[59, 30]

>  <energy_score>  (521) 
1234.1768341868137

>  <distance_score>  (521) 
10.41052272091285

>  <path>  (521) 
/opt/xchem-fragalysis-2/maxwin/BulkDock/SCRATCH/511015/C40175-P30/C40175-P30.minimised.mol

>  <scratch_subdir>  (521) 
/opt/xchem-fragalysis-2/maxwin/BulkDock/SCRATCH/511015/C40175-P30

>  <fragmenstein_runtime>  (521) 
13.496825695037842

>  <fragmenstein_outcome>  (521) 
too moved

>  <fragmenstein_mode>  (521) 
expansion

>  <fragmenstein_error>  (521) 


$$$$
C40179-P59
     RDKit          3D

 49 50  0  0  0  0  0  0  0  0999 V2000
   -8.4612  -21.7758   14.1910 C   0  0  0  0  0  0  0  0  0  0  0  0
   -9.9363  -20.7761   14.9193 C   0  0  0  0  0  0  0  0  0  0  0  0
  -10.6991  -20.3767   13.5934 C   0  0  0  0  0  0  0  0  0  0  0  0
   -9.9867  -18.9702   16.0110 C   0  0  0  0  0  0  0  0  0  0  0  0
   -8.6634  -17.5139   16.5991 N   0  0  0  0  0  0  0  0  0  0  0  0
   -8.0235  -16.0639   15.7002 C   0  0  0  0  0  0  0  0  0  0  0  0
   -8.2501  -15.7950   14.5206 O   0  0  0  0  0  0  0  0  0  0  0  0
   -7.0255  -15.0037   16.3029 C   0  0  0  0  0  0  0  0  0  0  0  0
   -7.4944  -13.4372   16.4461 C   0  0  0  0  0  0  0  0  0  0  0  0
   -6.3611  -12.3389   16.8719 C   0  0  0  0  0  0  0  0  0  0  0  0
   -6.6530  -10.8935   16.7227 N   0  0  0  0  0  0  0  0  0  0  0  0
   -5.4389  -10.0601   16.8858 C   0  0  0  0  0  0  0  0  0  0  0  0
   -5.9755   -8.6461   17.1084 C   0  0  0  0  0  0  0  0  0  0  0  0
   -7.4347   -8.8503   17.5072 C   0  0  0  0  0  0  0  0  0  0  0  0
   -7.5678  -10.3533   17.7324 C   0  0  0  0  0  0  0  0  0  0  0  0
  -10.2092  -22.3485   14.9949 N   0  0  0  0  0  0  0  0  0  0  0  0
  -10.6666  -23.3192   13.9347 C   0  0  0  0  0  0  0  0  0  0  0  0
  -11.0153  -23.1281   12.8006 O   0  0  0  0  0  0  0  0  0  0  0  0
  -10.5929  -24.7616   14.2668 C   0  0  0  0  0  0  0  0  0  0  0  0
  -11.0912  -25.3297   15.3736 N   0  0  0  0  0  0  0  0  0  0  0  0
  -10.8406  -26.6818   15.2760 O   0  0  0  0  0  0  0  0  0  0  0  0
  -10.2357  -26.9406   14.0961 C   0  0  0  0  0  0  0  0  0  0  0  0
  -10.0766  -25.7737   13.4036 C   0  0  0  0  0  0  0  0  0  0  0  0
   -9.3760  -25.5967   11.8688 Cl  0  0  0  0  0  0  0  0  0  0  0  0
   -7.5704  -21.2788   13.7907 H   0  0  0  0  0  0  0  0  0  0  0  0
   -8.1218  -22.4667   14.9601 H   0  0  0  0  0  0  0  0  0  0  0  0
   -8.7700  -22.2984   13.2731 H   0  0  0  0  0  0  0  0  0  0  0  0
  -11.6347  -20.8606   13.4215 H   0  0  0  0  0  0  0  0  0  0  0  0
  -10.1264  -20.6439   12.6960 H   0  0  0  0  0  0  0  0  0  0  0  0
  -10.8688  -19.3057   13.6209 H   0  0  0  0  0  0  0  0  0  0  0  0
   -9.8385  -19.3589   17.0575 H   0  0  0  0  0  0  0  0  0  0  0  0
  -10.8281  -18.4536   15.6314 H   0  0  0  0  0  0  0  0  0  0  0  0
   -8.3935  -17.4502   17.5774 H   0  0  0  0  0  0  0  0  0  0  0  0
   -6.1618  -15.3687   16.8388 H   0  0  0  0  0  0  0  0  0  0  0  0
   -6.4039  -14.8558   15.3911 H   0  0  0  0  0  0  0  0  0  0  0  0
   -8.3290  -13.3801   17.1556 H   0  0  0  0  0  0  0  0  0  0  0  0
   -7.8966  -13.1304   15.4719 H   0  0  0  0  0  0  0  0  0  0  0  0
   -5.4934  -12.5732   16.2422 H   0  0  0  0  0  0  0  0  0  0  0  0
   -6.0579  -12.4781   17.9075 H   0  0  0  0  0  0  0  0  0  0  0  0
   -4.8043  -10.1074   15.9949 H   0  0  0  0  0  0  0  0  0  0  0  0
   -4.8425  -10.3813   17.7476 H   0  0  0  0  0  0  0  0  0  0  0  0
   -5.9261   -8.0608   16.1828 H   0  0  0  0  0  0  0  0  0  0  0  0
   -5.3935   -8.1107   17.8616 H   0  0  0  0  0  0  0  0  0  0  0  0
   -7.7491   -8.2562   18.3668 H   0  0  0  0  0  0  0  0  0  0  0  0
   -8.0771   -8.5481   16.6693 H   0  0  0  0  0  0  0  0  0  0  0  0
   -8.5967  -10.6935   17.5828 H   0  0  0  0  0  0  0  0  0  0  0  0
   -7.2400  -10.6279   18.7353 H   0  0  0  0  0  0  0  0  0  0  0  0
   -9.9110  -22.8634   15.8116 H   0  0  0  0  0  0  0  0  0  0  0  0
   -9.9955  -27.9744   13.9013 H   0  0  0  0  0  0  0  0  0  0  0  0
  1  2  1  0
  2  3  1  0
  2  4  1  0
  4  5  1  0
  5  6  1  0
  6  7  2  0
  6  8  1  0
  8  9  1  0
  9 10  1  0
 10 11  1  0
 11 12  1  0
 12 13  1  0
 13 14  1  0
 14 15  1  0
  2 16  1  0
 16 17  1  0
 17 18  2  0
 17 19  1  0
 19 20  2  0
 20 21  1  0
 21 22  1  0
 22 23  2  0
 23 24  1  0
 15 11  1  0
 23 19  1  0
  1 25  1  0
  1 26  1  0
  1 27  1  0
  3 28  1  0
  3 29  1  0
  3 30  1  0
  4 31  1  0
  4 32  1  0
  5 33  1  0
  8 34  1  0
  8 35  1  0
  9 36  1  0
  9 37  1  0
 10 38  1  0
 10 39  1  0
 12 40  1  0
 12 41  1  0
 13 42  1  0
 13 43  1  0
 14 44  1  0
 14 45  1  0
 15 46  1  0
 15 47  1  0
 16 48  1  0
 22 49  1  0
M  END
>  <Energy>  (522) 
465.70989434641064

>  <compound_id>  (522) 
40179

>  <target_id>  (522) 
1

>  <reference_id>  (522) 
59

>  <inspiration_ids>  (522) 
[59, 30]

>  <energy_score>  (522) 
404.02860313344286

>  <distance_score>  (522) 
12.276063069287424

>  <path>  (522) 
/opt/xchem-fragalysis-2/maxwin/BulkDock/SCRATCH/511015/C40179-P59/C40179-P59.minimised.mol

>  <scratch_subdir>  (522) 
/opt/xchem-fragalysis-2/maxwin/BulkDock/SCRATCH/511015/C40179-P59

>  <fragmenstein_runtime>  (522) 
15.646533489227295

>  <fragmenstein_outcome>  (522) 
too moved

>  <fragmenstein_mode>  (522) 
expansion

>  <fragmenstein_error>  (522) 


$$$$
C40179-P30
     RDKit          3D

 49 50  0  0  0  0  0  0  0  0999 V2000
  -12.5285  -21.7620   19.3879 C   0  0  0  0  0  0  0  0  0  0  0  0
  -12.7083  -21.4176   17.3790 C   0  0  0  0  0  0  0  0  0  0  0  0
  -13.5950  -23.3465   17.3040 C   0  0  0  0  0  0  0  0  0  0  0  0
  -13.0316  -19.8732   18.6207 C   0  0  0  0  0  0  0  0  0  0  0  0
  -12.7520  -18.4066   19.1000 N   0  0  0  0  0  0  0  0  0  0  0  0
  -13.2798  -17.6477   20.2635 C   0  0  0  0  0  0  0  0  0  0  0  0
  -13.9870  -17.9988   21.1682 O   0  0  0  0  0  0  0  0  0  0  0  0
  -12.8941  -16.0840   20.1872 C   0  0  0  0  0  0  0  0  0  0  0  0
  -13.1643  -15.1344   21.4666 C   0  0  0  0  0  0  0  0  0  0  0  0
  -12.9456  -13.5459   21.2590 C   0  0  0  0  0  0  0  0  0  0  0  0
  -12.4794  -12.6704   22.3691 N   0  0  0  0  0  0  0  0  0  0  0  0
  -11.9002  -11.4257   21.8514 C   0  0  0  0  0  0  0  0  0  0  0  0
  -11.6744  -10.5462   23.0774 C   0  0  0  0  0  0  0  0  0  0  0  0
  -12.6926  -11.0654   24.0854 C   0  0  0  0  0  0  0  0  0  0  0  0
  -13.4447  -12.1973   23.3568 C   0  0  0  0  0  0  0  0  0  0  0  0
  -10.6396  -21.5149   16.2761 N   0  0  0  0  0  0  0  0  0  0  0  0
   -9.9561  -22.7572   15.3266 C   0  0  0  0  0  0  0  0  0  0  0  0
  -10.3568  -23.9024   15.1097 O   0  0  0  0  0  0  0  0  0  0  0  0
   -8.7728  -22.3871   14.5305 C   0  0  0  0  0  0  0  0  0  0  0  0
   -7.8877  -22.4713   13.4774 N   0  0  0  0  0  0  0  0  0  0  0  0
   -8.4247  -23.4191   12.5581 O   0  0  0  0  0  0  0  0  0  0  0  0
   -9.7385  -23.1258   12.5222 C   0  0  0  0  0  0  0  0  0  0  0  0
   -9.7287  -22.1149   13.4142 C   0  0  0  0  0  0  0  0  0  0  0  0
  -10.7151  -20.8430   13.5323 Cl  0  0  0  0  0  0  0  0  0  0  0  0
  -13.1017  -21.2054   20.1542 H   0  0  0  0  0  0  0  0  0  0  0  0
  -12.6221  -22.8417   19.5087 H   0  0  0  0  0  0  0  0  0  0  0  0
  -11.6341  -21.5882   20.0257 H   0  0  0  0  0  0  0  0  0  0  0  0
  -14.3401  -23.3802   16.4875 H   0  0  0  0  0  0  0  0  0  0  0  0
  -14.0171  -23.6738   18.2617 H   0  0  0  0  0  0  0  0  0  0  0  0
  -13.1101  -24.3184   17.1045 H   0  0  0  0  0  0  0  0  0  0  0  0
  -13.2241  -19.3503   17.6989 H   0  0  0  0  0  0  0  0  0  0  0  0
  -13.8576  -20.1112   19.2969 H   0  0  0  0  0  0  0  0  0  0  0  0
  -12.1161  -17.8130   18.5767 H   0  0  0  0  0  0  0  0  0  0  0  0
  -11.8517  -16.0197   19.8736 H   0  0  0  0  0  0  0  0  0  0  0  0
  -13.4976  -15.6809   19.3635 H   0  0  0  0  0  0  0  0  0  0  0  0
  -12.5389  -15.4796   22.2942 H   0  0  0  0  0  0  0  0  0  0  0  0
  -14.1991  -15.2871   21.7971 H   0  0  0  0  0  0  0  0  0  0  0  0
  -12.2415  -13.4501   20.4242 H   0  0  0  0  0  0  0  0  0  0  0  0
  -13.8899  -13.1463   20.8644 H   0  0  0  0  0  0  0  0  0  0  0  0
  -10.9885  -11.6797   21.3244 H   0  0  0  0  0  0  0  0  0  0  0  0
  -12.5831  -10.9250   21.1529 H   0  0  0  0  0  0  0  0  0  0  0  0
  -10.6600  -10.6532   23.4726 H   0  0  0  0  0  0  0  0  0  0  0  0
  -11.8350   -9.4890   22.8443 H   0  0  0  0  0  0  0  0  0  0  0  0
  -13.3817  -10.2786   24.4085 H   0  0  0  0  0  0  0  0  0  0  0  0
  -12.1784  -11.4468   24.9747 H   0  0  0  0  0  0  0  0  0  0  0  0
  -13.7555  -12.9857   24.0487 H   0  0  0  0  0  0  0  0  0  0  0  0
  -14.3417  -11.7914   22.8722 H   0  0  0  0  0  0  0  0  0  0  0  0
   -9.9956  -20.7075   16.3053 H   0  0  0  0  0  0  0  0  0  0  0  0
  -10.3496  -23.5146   11.7270 H   0  0  0  0  0  0  0  0  0  0  0  0
  1  2  1  0
  2  3  1  0
  2  4  1  0
  4  5  1  0
  5  6  1  0
  6  7  2  0
  6  8  1  0
  8  9  1  0
  9 10  1  0
 10 11  1  0
 11 12  1  0
 12 13  1  0
 13 14  1  0
 14 15  1  0
  2 16  1  0
 16 17  1  0
 17 18  2  0
 17 19  1  0
 19 20  2  0
 20 21  1  0
 21 22  1  0
 22 23  2  0
 23 24  1  0
 15 11  1  0
 23 19  1  0
  1 25  1  0
  1 26  1  0
  1 27  1  0
  3 28  1  0
  3 29  1  0
  3 30  1  0
  4 31  1  0
  4 32  1  0
  5 33  1  0
  8 34  1  0
  8 35  1  0
  9 36  1  0
  9 37  1  0
 10 38  1  0
 10 39  1  0
 12 40  1  0
 12 41  1  0
 13 42  1  0
 13 43  1  0
 14 44  1  0
 14 45  1  0
 15 46  1  0
 15 47  1  0
 16 48  1  0
 22 49  1  0
M  END
>  <Energy>  (523) 
883.81903141813768

>  <compound_id>  (523) 
40179

>  <target_id>  (523) 
1

>  <reference_id>  (523) 
30

>  <inspiration_ids>  (523) 
[59, 30]

>  <energy_score>  (523) 
822.1377402051692

>  <distance_score>  (523) 
12.623372175352786

>  <path>  (523) 
/opt/xchem-fragalysis-2/maxwin/BulkDock/SCRATCH/511015/C40179-P30/C40179-P30.minimised.mol

>  <scratch_subdir>  (523) 
/opt/xchem-fragalysis-2/maxwin/BulkDock/SCRATCH/511015/C40179-P30

>  <fragmenstein_runtime>  (523) 
14.419294118881226

>  <fragmenstein_outcome>  (523) 
too moved

>  <fragmenstein_mode>  (523) 
expansion

>  <fragmenstein_error>  (523) 


$$$$
C40185-P59
     RDKit          3D

 49 50  0  0  0  0  0  0  0  0999 V2000
  -10.8985  -19.6142   13.9429 C   0  0  0  0  0  0  0  0  0  0  0  0
  -10.1248  -20.0344   15.4388 C   0  0  0  0  0  0  0  0  0  0  0  0
   -9.8820  -21.3204   16.2296 N   0  0  0  0  0  0  0  0  0  0  0  0
   -9.1212  -20.0671   17.5541 C   0  0  0  0  0  0  0  0  0  0  0  0
   -9.5413  -18.4326   18.6161 C   0  0  0  0  0  0  0  0  0  0  0  0
   -9.3373  -16.6213   18.9350 N   0  0  0  0  0  0  0  0  0  0  0  0
   -8.6078  -15.8049   20.1834 C   0  0  0  0  0  0  0  0  0  0  0  0
   -8.1369  -16.3261   21.1627 O   0  0  0  0  0  0  0  0  0  0  0  0
   -8.1828  -13.6563   20.2027 C   0  0  0  0  0  0  0  0  0  0  0  0
   -6.9221  -12.2469   21.4317 C   0  0  0  0  0  0  0  0  0  0  0  0
   -6.2046  -11.3133   22.9742 C   0  0  0  0  0  0  0  0  0  0  0  0
   -4.5590  -10.1108   22.3872 N   0  0  0  0  0  0  0  0  0  0  0  0
   -3.4338   -9.8874   23.4897 C   0  0  0  0  0  0  0  0  0  0  0  0
   -2.6131   -8.6679   24.1155 C   0  0  0  0  0  0  0  0  0  0  0  0
   -3.1513   -7.5720   23.3018 C   0  0  0  0  0  0  0  0  0  0  0  0
   -4.1049   -8.2929   22.3358 C   0  0  0  0  0  0  0  0  0  0  0  0
   -9.2033  -22.3508   15.3282 C   0  0  0  0  0  0  0  0  0  0  0  0
   -8.0478  -22.5693   15.1472 O   0  0  0  0  0  0  0  0  0  0  0  0
  -10.0743  -23.3171   14.5611 C   0  0  0  0  0  0  0  0  0  0  0  0
  -10.4552  -24.5325   15.0133 N   0  0  0  0  0  0  0  0  0  0  0  0
  -11.1253  -25.1689   13.9968 O   0  0  0  0  0  0  0  0  0  0  0  0
  -11.0273  -24.4215   12.8805 C   0  0  0  0  0  0  0  0  0  0  0  0
  -10.3214  -23.2951   13.1821 C   0  0  0  0  0  0  0  0  0  0  0  0
   -9.7460  -22.1481   12.1455 Cl  0  0  0  0  0  0  0  0  0  0  0  0
  -10.2572  -19.5507   13.0599 H   0  0  0  0  0  0  0  0  0  0  0  0
  -11.6540  -20.3253   13.6335 H   0  0  0  0  0  0  0  0  0  0  0  0
  -11.2468  -18.5802   14.0563 H   0  0  0  0  0  0  0  0  0  0  0  0
   -9.9597  -20.7148   14.6384 H   0  0  0  0  0  0  0  0  0  0  0  0
  -10.1749  -19.0225   15.8494 H   0  0  0  0  0  0  0  0  0  0  0  0
   -8.0431  -20.2261   17.6597 H   0  0  0  0  0  0  0  0  0  0  0  0
   -9.1870  -20.7386   18.4052 H   0  0  0  0  0  0  0  0  0  0  0  0
   -8.8245  -18.6939   19.4131 H   0  0  0  0  0  0  0  0  0  0  0  0
  -10.5035  -18.6069   19.1124 H   0  0  0  0  0  0  0  0  0  0  0  0
   -9.5648  -15.9657   18.2154 H   0  0  0  0  0  0  0  0  0  0  0  0
   -8.0079  -13.2663   19.1834 H   0  0  0  0  0  0  0  0  0  0  0  0
   -9.2085  -13.2521   20.2441 H   0  0  0  0  0  0  0  0  0  0  0  0
   -7.7688  -12.0233   22.2631 H   0  0  0  0  0  0  0  0  0  0  0  0
   -6.3677  -12.8456   22.1477 H   0  0  0  0  0  0  0  0  0  0  0  0
   -5.9053  -11.9924   23.8286 H   0  0  0  0  0  0  0  0  0  0  0  0
   -7.0812  -10.7834   23.4228 H   0  0  0  0  0  0  0  0  0  0  0  0
   -3.4025  -10.8776   23.9102 H   0  0  0  0  0  0  0  0  0  0  0  0
   -2.8020   -9.6628   22.7206 H   0  0  0  0  0  0  0  0  0  0  0  0
   -1.5320   -8.7871   23.9504 H   0  0  0  0  0  0  0  0  0  0  0  0
   -2.6999   -8.4333   25.1756 H   0  0  0  0  0  0  0  0  0  0  0  0
   -2.3626   -7.0246   22.7733 H   0  0  0  0  0  0  0  0  0  0  0  0
   -3.7210   -6.8457   23.8649 H   0  0  0  0  0  0  0  0  0  0  0  0
   -4.9055   -7.5980   22.3142 H   0  0  0  0  0  0  0  0  0  0  0  0
   -3.4798   -8.2028   21.4218 H   0  0  0  0  0  0  0  0  0  0  0  0
  -11.4491  -24.8445   11.9824 H   0  0  0  0  0  0  0  0  0  0  0  0
  1  2  1  0
  2  3  1  0
  3  4  1  0
  4  5  1  0
  5  6  1  0
  6  7  1  0
  7  8  2  0
  7  9  1  0
  9 10  1  0
 10 11  1  0
 11 12  1  0
 12 13  1  0
 13 14  1  0
 14 15  1  0
 15 16  1  0
  3 17  1  0
 17 18  2  0
 17 19  1  0
 19 20  2  0
 20 21  1  0
 21 22  1  0
 22 23  2  0
 23 24  1  0
 16 12  1  0
 23 19  1  0
  1 25  1  0
  1 26  1  0
  1 27  1  0
  2 28  1  0
  2 29  1  0
  4 30  1  0
  4 31  1  0
  5 32  1  0
  5 33  1  0
  6 34  1  0
  9 35  1  0
  9 36  1  0
 10 37  1  0
 10 38  1  0
 11 39  1  0
 11 40  1  0
 13 41  1  0
 13 42  1  0
 14 43  1  0
 14 44  1  0
 15 45  1  0
 15 46  1  0
 16 47  1  0
 16 48  1  0
 22 49  1  0
M  END
>  <Energy>  (524) 
1196.8273708990016

>  <compound_id>  (524) 
40185

>  <target_id>  (524) 
1

>  <reference_id>  (524) 
59

>  <inspiration_ids>  (524) 
[59, 30]

>  <energy_score>  (524) 
1134.432237649847

>  <distance_score>  (524) 
10.140081983674914

>  <path>  (524) 
/opt/xchem-fragalysis-2/maxwin/BulkDock/SCRATCH/511015/C40185-P59/C40185-P59.minimised.mol

>  <scratch_subdir>  (524) 
/opt/xchem-fragalysis-2/maxwin/BulkDock/SCRATCH/511015/C40185-P59

>  <fragmenstein_runtime>  (524) 
16.721718311309814

>  <fragmenstein_outcome>  (524) 
too moved

>  <fragmenstein_mode>  (524) 
expansion

>  <fragmenstein_error>  (524) 


$$$$
C40185-P30
     RDKit          3D

 49 50  0  0  0  0  0  0  0  0999 V2000
   -9.8727  -22.3969   13.6564 C   0  0  0  0  0  0  0  0  0  0  0  0
   -9.3547  -21.6714   14.9352 C   0  0  0  0  0  0  0  0  0  0  0  0
   -7.6306  -21.2006   14.5954 N   0  0  0  0  0  0  0  0  0  0  0  0
   -7.5496  -21.1517   16.8723 C   0  0  0  0  0  0  0  0  0  0  0  0
   -8.0540  -19.2619   17.9926 C   0  0  0  0  0  0  0  0  0  0  0  0
   -7.6690  -17.4743   18.9939 N   0  0  0  0  0  0  0  0  0  0  0  0
   -8.7078  -15.8010   19.1981 C   0  0  0  0  0  0  0  0  0  0  0  0
   -9.8441  -15.7330   18.7476 O   0  0  0  0  0  0  0  0  0  0  0  0
   -8.0760  -13.7843   20.0139 C   0  0  0  0  0  0  0  0  0  0  0  0
   -6.8398  -12.3169   21.2147 C   0  0  0  0  0  0  0  0  0  0  0  0
   -6.1601  -11.3711   22.8494 C   0  0  0  0  0  0  0  0  0  0  0  0
   -4.4829  -10.1724   22.3689 N   0  0  0  0  0  0  0  0  0  0  0  0
   -3.9924   -8.3644   22.2897 C   0  0  0  0  0  0  0  0  0  0  0  0
   -3.1026   -7.5867   23.2614 C   0  0  0  0  0  0  0  0  0  0  0  0
   -2.5391   -8.6470   24.1055 C   0  0  0  0  0  0  0  0  0  0  0  0
   -3.3673   -9.9217   23.5503 C   0  0  0  0  0  0  0  0  0  0  0  0
   -7.0615  -22.1376   13.4472 C   0  0  0  0  0  0  0  0  0  0  0  0
   -6.5084  -23.1451   13.4732 O   0  0  0  0  0  0  0  0  0  0  0  0
   -7.0847  -21.6369   12.1125 C   0  0  0  0  0  0  0  0  0  0  0  0
   -6.3491  -22.6336   11.4094 N   0  0  0  0  0  0  0  0  0  0  0  0
   -5.2086  -22.1863   10.8672 O   0  0  0  0  0  0  0  0  0  0  0  0
   -5.0842  -20.8913   11.0906 C   0  0  0  0  0  0  0  0  0  0  0  0
   -6.2137  -20.4125   11.7167 C   0  0  0  0  0  0  0  0  0  0  0  0
   -6.0766  -18.7473   12.0568 Cl  0  0  0  0  0  0  0  0  0  0  0  0
  -10.8995  -22.7434   13.7376 H   0  0  0  0  0  0  0  0  0  0  0  0
   -9.8047  -21.7675   12.7716 H   0  0  0  0  0  0  0  0  0  0  0  0
   -9.3030  -23.3056   13.4558 H   0  0  0  0  0  0  0  0  0  0  0  0
   -9.3264  -22.4725   15.6612 H   0  0  0  0  0  0  0  0  0  0  0  0
   -9.9333  -20.7995   15.1723 H   0  0  0  0  0  0  0  0  0  0  0  0
   -8.6744  -21.1868   17.1968 H   0  0  0  0  0  0  0  0  0  0  0  0
   -6.6911  -21.3799   17.4551 H   0  0  0  0  0  0  0  0  0  0  0  0
   -9.0062  -19.5033   18.4775 H   0  0  0  0  0  0  0  0  0  0  0  0
   -7.2861  -19.5753   18.7009 H   0  0  0  0  0  0  0  0  0  0  0  0
   -6.7931  -17.3820   19.4951 H   0  0  0  0  0  0  0  0  0  0  0  0
   -7.9465  -13.2318   19.0508 H   0  0  0  0  0  0  0  0  0  0  0  0
   -9.0913  -13.3889   20.1666 H   0  0  0  0  0  0  0  0  0  0  0  0
   -7.6653  -12.0493   22.1234 H   0  0  0  0  0  0  0  0  0  0  0  0
   -6.3170  -12.8830   22.0032 H   0  0  0  0  0  0  0  0  0  0  0  0
   -7.0343  -10.8282   23.2928 H   0  0  0  0  0  0  0  0  0  0  0  0
   -5.9122  -12.0630   23.7133 H   0  0  0  0  0  0  0  0  0  0  0  0
   -3.2938   -8.3579   21.4211 H   0  0  0  0  0  0  0  0  0  0  0  0
   -4.7785   -7.6620   22.1232 H   0  0  0  0  0  0  0  0  0  0  0  0
   -3.7171   -6.8702   23.7919 H   0  0  0  0  0  0  0  0  0  0  0  0
   -2.3237   -7.0150   22.7440 H   0  0  0  0  0  0  0  0  0  0  0  0
   -2.5998   -8.3653   25.1605 H   0  0  0  0  0  0  0  0  0  0  0  0
   -1.4599   -8.7656   23.9209 H   0  0  0  0  0  0  0  0  0  0  0  0
   -3.2947  -10.8796   24.0466 H   0  0  0  0  0  0  0  0  0  0  0  0
   -2.6875   -9.7418   22.7959 H   0  0  0  0  0  0  0  0  0  0  0  0
   -4.1709  -20.4357   10.7386 H   0  0  0  0  0  0  0  0  0  0  0  0
  1  2  1  0
  2  3  1  0
  3  4  1  0
  4  5  1  0
  5  6  1  0
  6  7  1  0
  7  8  2  0
  7  9  1  0
  9 10  1  0
 10 11  1  0
 11 12  1  0
 12 13  1  0
 13 14  1  0
 14 15  1  0
 15 16  1  0
  3 17  1  0
 17 18  2  0
 17 19  1  0
 19 20  2  0
 20 21  1  0
 21 22  1  0
 22 23  2  0
 23 24  1  0
 16 12  1  0
 23 19  1  0
  1 25  1  0
  1 26  1  0
  1 27  1  0
  2 28  1  0
  2 29  1  0
  4 30  1  0
  4 31  1  0
  5 32  1  0
  5 33  1  0
  6 34  1  0
  9 35  1  0
  9 36  1  0
 10 37  1  0
 10 38  1  0
 11 39  1  0
 11 40  1  0
 13 41  1  0
 13 42  1  0
 14 43  1  0
 14 44  1  0
 15 45  1  0
 15 46  1  0
 16 47  1  0
 16 48  1  0
 22 49  1  0
M  END
>  <Energy>  (525) 
1761.4957430066881

>  <compound_id>  (525) 
40185

>  <target_id>  (525) 
1

>  <reference_id>  (525) 
30

>  <inspiration_ids>  (525) 
[59, 30]

>  <energy_score>  (525) 
1699.1006097575682

>  <distance_score>  (525) 
10.187266566142485

>  <path>  (525) 
/opt/xchem-fragalysis-2/maxwin/BulkDock/SCRATCH/511015/C40185-P30/C40185-P30.minimised.mol

>  <scratch_subdir>  (525) 
/opt/xchem-fragalysis-2/maxwin/BulkDock/SCRATCH/511015/C40185-P30

>  <fragmenstein_runtime>  (525) 
19.60284996032715

>  <fragmenstein_outcome>  (525) 
too moved

>  <fragmenstein_mode>  (525) 
expansion

>  <fragmenstein_error>  (525) 


$$$$
C40193-P59
     RDKit          3D

 46 47  0  0  0  0  0  0  0  0999 V2000
  -12.4854   -8.5435   28.2840 C   0  0  0  0  0  0  0  0  0  0  0  0
  -11.8995   -8.9485   26.8946 C   0  0  0  0  0  0  0  0  0  0  0  0
  -12.1432   -7.7090   25.9653 C   0  0  0  0  0  0  0  0  0  0  0  0
  -11.6501   -6.3870   26.4083 N   0  0  0  0  0  0  0  0  0  0  0  0
  -10.3419   -5.9600   26.8332 C   0  0  0  0  0  0  0  0  0  0  0  0
   -9.3395   -6.5848   27.0116 O   0  0  0  0  0  0  0  0  0  0  0  0
  -10.2313   -4.4719   27.0636 C   0  0  0  0  0  0  0  0  0  0  0  0
   -9.0040   -3.9265   27.2181 N   0  0  0  0  0  0  0  0  0  0  0  0
   -9.1569   -2.5881   27.4683 O   0  0  0  0  0  0  0  0  0  0  0  0
  -10.4719   -2.2951   27.4562 C   0  0  0  0  0  0  0  0  0  0  0  0
  -11.1925   -3.4391   27.2143 C   0  0  0  0  0  0  0  0  0  0  0  0
  -12.8817   -3.5656   27.1412 Cl  0  0  0  0  0  0  0  0  0  0  0  0
  -12.3528  -10.4416   26.6168 N   0  0  0  0  0  0  0  0  0  0  0  0
  -12.0611  -11.3915   25.4155 C   0  0  0  0  0  0  0  0  0  0  0  0
  -11.4866  -11.1811   24.3767 O   0  0  0  0  0  0  0  0  0  0  0  0
  -12.6863  -13.0546   25.7269 C   0  0  0  0  0  0  0  0  0  0  0  0
  -12.9932  -14.8676   25.0736 C   0  0  0  0  0  0  0  0  0  0  0  0
  -14.2737  -15.9714   24.2564 C   0  0  0  0  0  0  0  0  0  0  0  0
  -14.5685  -17.3583   23.7113 N   0  0  0  0  0  0  0  0  0  0  0  0
  -15.5051  -18.2022   24.4644 C   0  0  0  0  0  0  0  0  0  0  0  0
  -15.7868  -19.3394   23.4751 C   0  0  0  0  0  0  0  0  0  0  0  0
  -15.7994  -18.6658   22.1115 C   0  0  0  0  0  0  0  0  0  0  0  0
  -15.3167  -17.2491   22.4076 C   0  0  0  0  0  0  0  0  0  0  0  0
  -12.0618   -7.6058   28.6560 H   0  0  0  0  0  0  0  0  0  0  0  0
  -13.5734   -8.4325   28.2175 H   0  0  0  0  0  0  0  0  0  0  0  0
  -12.2844   -9.3069   29.0395 H   0  0  0  0  0  0  0  0  0  0  0  0
  -10.8533   -8.9902   27.1171 H   0  0  0  0  0  0  0  0  0  0  0  0
  -11.6915   -7.8631   24.9856 H   0  0  0  0  0  0  0  0  0  0  0  0
  -13.2191   -7.5390   25.8584 H   0  0  0  0  0  0  0  0  0  0  0  0
  -12.2395   -5.5721   26.2841 H   0  0  0  0  0  0  0  0  0  0  0  0
  -10.7278   -1.2628   27.6395 H   0  0  0  0  0  0  0  0  0  0  0  0
  -12.7773  -10.9594   27.3529 H   0  0  0  0  0  0  0  0  0  0  0  0
  -13.7564  -12.9648   25.7742 H   0  0  0  0  0  0  0  0  0  0  0  0
  -11.9972  -13.2221   26.5739 H   0  0  0  0  0  0  0  0  0  0  0  0
  -12.3782  -15.1113   24.2386 H   0  0  0  0  0  0  0  0  0  0  0  0
  -12.6990  -15.1134   26.0542 H   0  0  0  0  0  0  0  0  0  0  0  0
  -15.2366  -15.5920   24.6304 H   0  0  0  0  0  0  0  0  0  0  0  0
  -13.8550  -15.7562   23.2696 H   0  0  0  0  0  0  0  0  0  0  0  0
  -15.1211  -18.5914   25.4052 H   0  0  0  0  0  0  0  0  0  0  0  0
  -16.4350  -17.6634   24.6910 H   0  0  0  0  0  0  0  0  0  0  0  0
  -14.9857  -20.0875   23.5159 H   0  0  0  0  0  0  0  0  0  0  0  0
  -16.7334  -19.8427   23.6938 H   0  0  0  0  0  0  0  0  0  0  0  0
  -15.1406  -19.1954   21.4161 H   0  0  0  0  0  0  0  0  0  0  0  0
  -16.8056  -18.6522   21.6800 H   0  0  0  0  0  0  0  0  0  0  0  0
  -16.1843  -16.5844   22.5248 H   0  0  0  0  0  0  0  0  0  0  0  0
  -14.7118  -16.8459   21.5893 H   0  0  0  0  0  0  0  0  0  0  0  0
  1  2  1  0
  2  3  1  0
  3  4  1  0
  4  5  1  0
  5  6  2  0
  5  7  1  0
  7  8  2  0
  8  9  1  0
  9 10  1  0
 10 11  2  0
 11 12  1  0
  2 13  1  0
 13 14  1  0
 14 15  2  0
 14 16  1  0
 16 17  1  0
 17 18  1  0
 18 19  1  0
 19 20  1  0
 20 21  1  0
 21 22  1  0
 22 23  1  0
 11  7  1  0
 23 19  1  0
  1 24  1  0
  1 25  1  0
  1 26  1  0
  2 27  1  0
  3 28  1  0
  3 29  1  0
  4 30  1  0
 10 31  1  0
 13 32  1  0
 16 33  1  0
 16 34  1  0
 17 35  1  0
 17 36  1  0
 18 37  1  0
 18 38  1  0
 20 39  1  0
 20 40  1  0
 21 41  1  0
 21 42  1  0
 22 43  1  0
 22 44  1  0
 23 45  1  0
 23 46  1  0
M  END
>  <Energy>  (526) 
248.68545157210613

>  <compound_id>  (526) 
40193

>  <target_id>  (526) 
1

>  <reference_id>  (526) 
59

>  <inspiration_ids>  (526) 
[59, 30]

>  <energy_score>  (526) 
198.88796768901955

>  <distance_score>  (526) 
12.56773196212203

>  <path>  (526) 
/opt/xchem-fragalysis-2/maxwin/BulkDock/SCRATCH/511015/C40193-P59/C40193-P59.minimised.mol

>  <scratch_subdir>  (526) 
/opt/xchem-fragalysis-2/maxwin/BulkDock/SCRATCH/511015/C40193-P59

>  <fragmenstein_runtime>  (526) 
15.937196493148804

>  <fragmenstein_outcome>  (526) 
too moved

>  <fragmenstein_mode>  (526) 
expansion

>  <fragmenstein_error>  (526) 


$$$$
C40193-P30
     RDKit          3D

 46 47  0  0  0  0  0  0  0  0999 V2000
   -3.0230  -12.1624   22.8078 C   0  0  0  0  0  0  0  0  0  0  0  0
   -1.9465  -13.2688   22.9104 C   0  0  0  0  0  0  0  0  0  0  0  0
   -1.3212  -13.3223   24.3454 C   0  0  0  0  0  0  0  0  0  0  0  0
   -1.5130  -12.1593   25.2149 N   0  0  0  0  0  0  0  0  0  0  0  0
   -0.7403  -11.6757   26.3248 C   0  0  0  0  0  0  0  0  0  0  0  0
    0.3003  -12.0542   26.7729 O   0  0  0  0  0  0  0  0  0  0  0  0
   -1.4193  -10.5247   27.0044 C   0  0  0  0  0  0  0  0  0  0  0  0
   -2.5505   -9.9724   26.5122 N   0  0  0  0  0  0  0  0  0  0  0  0
   -2.9055   -8.9575   27.3865 O   0  0  0  0  0  0  0  0  0  0  0  0
   -2.0296   -8.9183   28.4135 C   0  0  0  0  0  0  0  0  0  0  0  0
   -1.0540   -9.8584   28.2139 C   0  0  0  0  0  0  0  0  0  0  0  0
    0.2645  -10.1623   29.2341 Cl  0  0  0  0  0  0  0  0  0  0  0  0
   -2.3941  -14.6240   22.4332 N   0  0  0  0  0  0  0  0  0  0  0  0
   -2.4262  -15.2056   21.0905 C   0  0  0  0  0  0  0  0  0  0  0  0
   -2.1770  -14.7187   20.0216 O   0  0  0  0  0  0  0  0  0  0  0  0
   -2.7480  -16.7577   21.1125 C   0  0  0  0  0  0  0  0  0  0  0  0
   -3.9587  -17.2993   20.2706 C   0  0  0  0  0  0  0  0  0  0  0  0
   -3.9010  -18.8139   19.9677 C   0  0  0  0  0  0  0  0  0  0  0  0
   -5.1551  -19.3988   19.4711 N   0  0  0  0  0  0  0  0  0  0  0  0
   -5.0149  -20.8512   19.3036 C   0  0  0  0  0  0  0  0  0  0  0  0
   -5.4399  -21.1434   17.8875 C   0  0  0  0  0  0  0  0  0  0  0  0
   -6.3377  -19.9899   17.5168 C   0  0  0  0  0  0  0  0  0  0  0  0
   -5.6145  -18.8390   18.1884 C   0  0  0  0  0  0  0  0  0  0  0  0
   -3.8915  -12.3804   23.4339 H   0  0  0  0  0  0  0  0  0  0  0  0
   -3.3666  -12.0728   21.7721 H   0  0  0  0  0  0  0  0  0  0  0  0
   -2.6199  -11.1815   23.0785 H   0  0  0  0  0  0  0  0  0  0  0  0
   -1.1491  -12.9787   22.2141 H   0  0  0  0  0  0  0  0  0  0  0  0
   -0.2418  -13.4979   24.2647 H   0  0  0  0  0  0  0  0  0  0  0  0
   -1.7109  -14.1810   24.9019 H   0  0  0  0  0  0  0  0  0  0  0  0
   -2.3910  -11.6452   25.1737 H   0  0  0  0  0  0  0  0  0  0  0  0
   -2.2268   -8.1815   29.1759 H   0  0  0  0  0  0  0  0  0  0  0  0
   -2.7465  -15.3026   23.0961 H   0  0  0  0  0  0  0  0  0  0  0  0
   -2.8313  -17.1135   22.1385 H   0  0  0  0  0  0  0  0  0  0  0  0
   -1.8334  -17.2273   20.7235 H   0  0  0  0  0  0  0  0  0  0  0  0
   -4.0225  -16.7415   19.3297 H   0  0  0  0  0  0  0  0  0  0  0  0
   -4.8737  -17.1049   20.8372 H   0  0  0  0  0  0  0  0  0  0  0  0
   -3.6388  -19.3198   20.9064 H   0  0  0  0  0  0  0  0  0  0  0  0
   -3.0782  -19.0014   19.2651 H   0  0  0  0  0  0  0  0  0  0  0  0
   -4.0008  -21.2295   19.4809 H   0  0  0  0  0  0  0  0  0  0  0  0
   -5.6705  -21.3433   20.0271 H   0  0  0  0  0  0  0  0  0  0  0  0
   -4.5507  -21.1425   17.2459 H   0  0  0  0  0  0  0  0  0  0  0  0
   -5.9175  -22.1088   17.8203 H   0  0  0  0  0  0  0  0  0  0  0  0
   -6.4126  -19.8608   16.4354 H   0  0  0  0  0  0  0  0  0  0  0  0
   -7.3418  -20.1193   17.9362 H   0  0  0  0  0  0  0  0  0  0  0  0
   -6.2724  -17.9778   18.3398 H   0  0  0  0  0  0  0  0  0  0  0  0
   -4.7691  -18.5263   17.5620 H   0  0  0  0  0  0  0  0  0  0  0  0
  1  2  1  0
  2  3  1  0
  3  4  1  0
  4  5  1  0
  5  6  2  0
  5  7  1  0
  7  8  2  0
  8  9  1  0
  9 10  1  0
 10 11  2  0
 11 12  1  0
  2 13  1  0
 13 14  1  0
 14 15  2  0
 14 16  1  0
 16 17  1  0
 17 18  1  0
 18 19  1  0
 19 20  1  0
 20 21  1  0
 21 22  1  0
 22 23  1  0
 11  7  1  0
 23 19  1  0
  1 24  1  0
  1 25  1  0
  1 26  1  0
  2 27  1  0
  3 28  1  0
  3 29  1  0
  4 30  1  0
 10 31  1  0
 13 32  1  0
 16 33  1  0
 16 34  1  0
 17 35  1  0
 17 36  1  0
 18 37  1  0
 18 38  1  0
 20 39  1  0
 20 40  1  0
 21 41  1  0
 21 42  1  0
 22 43  1  0
 22 44  1  0
 23 45  1  0
 23 46  1  0
M  END
>  <Energy>  (527) 
27.531534008689924

>  <compound_id>  (527) 
40193

>  <target_id>  (527) 
1

>  <reference_id>  (527) 
30

>  <inspiration_ids>  (527) 
[59, 30]

>  <energy_score>  (527) 
-22.265949874403248

>  <distance_score>  (527) 
12.6552443419212

>  <path>  (527) 
/opt/xchem-fragalysis-2/maxwin/BulkDock/SCRATCH/511015/C40193-P30/C40193-P30.minimised.mol

>  <scratch_subdir>  (527) 
/opt/xchem-fragalysis-2/maxwin/BulkDock/SCRATCH/511015/C40193-P30

>  <fragmenstein_runtime>  (527) 
18.036994218826294

>  <fragmenstein_outcome>  (527) 
too moved

>  <fragmenstein_mode>  (527) 
expansion

>  <fragmenstein_error>  (527) 


$$$$
C40198-P59
     RDKit          3D

 47 48  0  0  0  0  0  0  0  0999 V2000
  -10.0599  -20.9887   14.9699 C   0  0  0  0  0  0  0  0  0  0  0  0
   -9.6840  -21.5956   16.2647 N   0  0  0  0  0  0  0  0  0  0  0  0
   -8.8274  -20.6502   17.7398 C   0  0  0  0  0  0  0  0  0  0  0  0
   -8.8323  -19.2205   19.0736 C   0  0  0  0  0  0  0  0  0  0  0  0
   -8.1237  -18.7645   20.7186 N   0  0  0  0  0  0  0  0  0  0  0  0
   -7.8389  -17.2278   21.4501 C   0  0  0  0  0  0  0  0  0  0  0  0
   -8.0255  -16.2491   20.8512 O   0  0  0  0  0  0  0  0  0  0  0  0
   -7.2479  -16.7664   23.3205 C   0  0  0  0  0  0  0  0  0  0  0  0
   -6.5649  -14.6847   23.9343 C   0  0  0  0  0  0  0  0  0  0  0  0
   -5.6538  -12.6121   23.9001 C   0  0  0  0  0  0  0  0  0  0  0  0
   -4.1391  -11.0778   23.8834 N   0  0  0  0  0  0  0  0  0  0  0  0
   -3.9506   -9.9919   22.3411 C   0  0  0  0  0  0  0  0  0  0  0  0
   -3.8964   -8.2385   22.2744 C   0  0  0  0  0  0  0  0  0  0  0  0
   -3.3813   -7.8168   23.5070 C   0  0  0  0  0  0  0  0  0  0  0  0
   -3.3137   -9.2848   24.0947 C   0  0  0  0  0  0  0  0  0  0  0  0
   -9.1482  -22.9144   15.4251 C   0  0  0  0  0  0  0  0  0  0  0  0
  -10.0032  -23.6410   14.3036 C   0  0  0  0  0  0  0  0  0  0  0  0
  -10.7412  -24.8542   14.4049 C   0  0  0  0  0  0  0  0  0  0  0  0
  -11.1625  -25.1196   13.1299 C   0  0  0  0  0  0  0  0  0  0  0  0
  -10.6706  -24.1805   12.2923 O   0  0  0  0  0  0  0  0  0  0  0  0
   -9.8982  -23.2922   13.0045 N   0  0  0  0  0  0  0  0  0  0  0  0
  -10.2600  -19.9294   15.0119 H   0  0  0  0  0  0  0  0  0  0  0  0
   -9.3840  -21.3938   14.2382 H   0  0  0  0  0  0  0  0  0  0  0  0
  -10.8202  -21.3600   14.2809 H   0  0  0  0  0  0  0  0  0  0  0  0
   -9.1349  -21.2713   18.5398 H   0  0  0  0  0  0  0  0  0  0  0  0
   -7.7508  -20.8107   17.6705 H   0  0  0  0  0  0  0  0  0  0  0  0
   -9.8903  -19.0791   19.3137 H   0  0  0  0  0  0  0  0  0  0  0  0
   -8.5232  -18.3434   18.4926 H   0  0  0  0  0  0  0  0  0  0  0  0
   -7.9871  -19.4815   21.4187 H   0  0  0  0  0  0  0  0  0  0  0  0
   -6.8973  -17.5886   23.9900 H   0  0  0  0  0  0  0  0  0  0  0  0
   -6.4851  -17.4702   22.7680 H   0  0  0  0  0  0  0  0  0  0  0  0
   -7.1959  -14.6764   24.8774 H   0  0  0  0  0  0  0  0  0  0  0  0
   -5.4471  -15.1224   23.9172 H   0  0  0  0  0  0  0  0  0  0  0  0
   -6.1372  -12.1529   24.7684 H   0  0  0  0  0  0  0  0  0  0  0  0
   -4.7414  -13.0882   24.0815 H   0  0  0  0  0  0  0  0  0  0  0  0
   -3.7608  -10.4545   21.3910 H   0  0  0  0  0  0  0  0  0  0  0  0
   -4.8712  -10.2088   21.9598 H   0  0  0  0  0  0  0  0  0  0  0  0
   -4.8300   -7.7352   22.3015 H   0  0  0  0  0  0  0  0  0  0  0  0
   -3.4761   -7.7155   21.4070 H   0  0  0  0  0  0  0  0  0  0  0  0
   -2.4541   -7.2406   23.4393 H   0  0  0  0  0  0  0  0  0  0  0  0
   -4.0660   -7.0814   23.9321 H   0  0  0  0  0  0  0  0  0  0  0  0
   -3.2302   -8.6721   25.0730 H   0  0  0  0  0  0  0  0  0  0  0  0
   -2.3802   -9.4097   24.7405 H   0  0  0  0  0  0  0  0  0  0  0  0
   -8.2178  -22.5726   14.9737 H   0  0  0  0  0  0  0  0  0  0  0  0
   -8.8998  -23.7768   15.9860 H   0  0  0  0  0  0  0  0  0  0  0  0
  -10.9324  -25.4539   15.2800 H   0  0  0  0  0  0  0  0  0  0  0  0
  -11.7556  -25.8957   12.6703 H   0  0  0  0  0  0  0  0  0  0  0  0
  1  2  1  0
  2  3  1  0
  3  4  1  0
  4  5  1  0
  5  6  1  0
  6  7  2  0
  6  8  1  0
  8  9  1  0
  9 10  1  0
 10 11  1  0
 11 12  1  0
 12 13  1  0
 13 14  1  0
 14 15  1  0
  2 16  1  0
 16 17  1  0
 17 18  1  0
 18 19  2  0
 19 20  1  0
 20 21  1  0
 15 11  1  0
 21 17  2  0
  1 22  1  0
  1 23  1  0
  1 24  1  0
  3 25  1  0
  3 26  1  0
  4 27  1  0
  4 28  1  0
  5 29  1  0
  8 30  1  0
  8 31  1  0
  9 32  1  0
  9 33  1  0
 10 34  1  0
 10 35  1  0
 12 36  1  0
 12 37  1  0
 13 38  1  0
 13 39  1  0
 14 40  1  0
 14 41  1  0
 15 42  1  0
 15 43  1  0
 16 44  1  0
 16 45  1  0
 18 46  1  0
 19 47  1  0
M  END
>  <Energy>  (528) 
1439.5231085194325

>  <compound_id>  (528) 
40198

>  <target_id>  (528) 
1

>  <reference_id>  (528) 
59

>  <inspiration_ids>  (528) 
[59, 30]

>  <energy_score>  (528) 
1373.7464438965096

>  <distance_score>  (528) 
9.892780715721777

>  <path>  (528) 
/opt/xchem-fragalysis-2/maxwin/BulkDock/SCRATCH/511015/C40198-P59/C40198-P59.minimised.mol

>  <scratch_subdir>  (528) 
/opt/xchem-fragalysis-2/maxwin/BulkDock/SCRATCH/511015/C40198-P59

>  <fragmenstein_runtime>  (528) 
12.833815574645996

>  <fragmenstein_outcome>  (528) 
too moved

>  <fragmenstein_mode>  (528) 
expansion

>  <fragmenstein_error>  (528) 


$$$$
C40198-P30
     RDKit          3D

 47 48  0  0  0  0  0  0  0  0999 V2000
   -8.6601  -22.8292   15.2682 C   0  0  0  0  0  0  0  0  0  0  0  0
   -9.5683  -21.8449   15.8074 N   0  0  0  0  0  0  0  0  0  0  0  0
   -8.9603  -20.8647   17.3090 C   0  0  0  0  0  0  0  0  0  0  0  0
   -8.8887  -19.4820   18.4320 C   0  0  0  0  0  0  0  0  0  0  0  0
   -8.8702  -19.8346   19.9270 N   0  0  0  0  0  0  0  0  0  0  0  0
   -8.4626  -19.0462   21.0953 C   0  0  0  0  0  0  0  0  0  0  0  0
   -7.9678  -17.9580   21.1668 O   0  0  0  0  0  0  0  0  0  0  0  0
   -8.6787  -19.8186   22.4743 C   0  0  0  0  0  0  0  0  0  0  0  0
   -9.5078  -19.1776   23.6711 C   0  0  0  0  0  0  0  0  0  0  0  0
   -8.8010  -18.1443   24.6800 C   0  0  0  0  0  0  0  0  0  0  0  0
   -9.6674  -17.1746   25.4183 N   0  0  0  0  0  0  0  0  0  0  0  0
   -9.0020  -16.3603   26.4622 C   0  0  0  0  0  0  0  0  0  0  0  0
  -10.0537  -15.8634   27.4478 C   0  0  0  0  0  0  0  0  0  0  0  0
  -11.3171  -16.5418   26.9717 C   0  0  0  0  0  0  0  0  0  0  0  0
  -10.8232  -17.7163   26.1196 C   0  0  0  0  0  0  0  0  0  0  0  0
  -10.0723  -21.6251   14.2655 C   0  0  0  0  0  0  0  0  0  0  0  0
  -10.0396  -22.7502   13.0701 C   0  0  0  0  0  0  0  0  0  0  0  0
  -11.1220  -23.6335   12.7059 C   0  0  0  0  0  0  0  0  0  0  0  0
  -10.5473  -24.6161   11.9538 C   0  0  0  0  0  0  0  0  0  0  0  0
   -9.2294  -24.3562   11.8354 O   0  0  0  0  0  0  0  0  0  0  0  0
   -8.9227  -23.1667   12.4706 N   0  0  0  0  0  0  0  0  0  0  0  0
   -7.7663  -23.1553   15.7143 H   0  0  0  0  0  0  0  0  0  0  0  0
   -9.2198  -23.7529   15.0706 H   0  0  0  0  0  0  0  0  0  0  0  0
   -8.1308  -22.3700   14.4217 H   0  0  0  0  0  0  0  0  0  0  0  0
   -9.2384  -21.4866   18.1038 H   0  0  0  0  0  0  0  0  0  0  0  0
   -7.8584  -20.9704   17.3930 H   0  0  0  0  0  0  0  0  0  0  0  0
   -7.9325  -18.9666   18.2870 H   0  0  0  0  0  0  0  0  0  0  0  0
   -9.6418  -18.7144   18.2862 H   0  0  0  0  0  0  0  0  0  0  0  0
   -9.1764  -20.7462   20.2339 H   0  0  0  0  0  0  0  0  0  0  0  0
   -7.6773  -20.0719   22.8439 H   0  0  0  0  0  0  0  0  0  0  0  0
   -9.1683  -20.7726   22.2431 H   0  0  0  0  0  0  0  0  0  0  0  0
   -9.8221  -20.0199   24.3050 H   0  0  0  0  0  0  0  0  0  0  0  0
  -10.4483  -18.7831   23.2766 H   0  0  0  0  0  0  0  0  0  0  0  0
   -8.2806  -18.7833   25.4023 H   0  0  0  0  0  0  0  0  0  0  0  0
   -8.0536  -17.5943   24.1035 H   0  0  0  0  0  0  0  0  0  0  0  0
   -8.4637  -15.5265   26.0145 H   0  0  0  0  0  0  0  0  0  0  0  0
   -8.3605  -16.9867   27.0830 H   0  0  0  0  0  0  0  0  0  0  0  0
   -9.8077  -16.2052   28.4611 H   0  0  0  0  0  0  0  0  0  0  0  0
  -10.1497  -14.7777   27.5003 H   0  0  0  0  0  0  0  0  0  0  0  0
  -11.9411  -16.8797   27.8050 H   0  0  0  0  0  0  0  0  0  0  0  0
  -11.9195  -15.8566   26.3654 H   0  0  0  0  0  0  0  0  0  0  0  0
  -11.6047  -18.0516   25.4310 H   0  0  0  0  0  0  0  0  0  0  0  0
  -10.5398  -18.5571   26.7651 H   0  0  0  0  0  0  0  0  0  0  0  0
  -10.8508  -22.3132   14.4531 H   0  0  0  0  0  0  0  0  0  0  0  0
  -10.5421  -20.6824   13.9823 H   0  0  0  0  0  0  0  0  0  0  0  0
  -12.1481  -23.5963   13.0380 H   0  0  0  0  0  0  0  0  0  0  0  0
  -10.8971  -25.5219   11.4814 H   0  0  0  0  0  0  0  0  0  0  0  0
  1  2  1  0
  2  3  1  0
  3  4  1  0
  4  5  1  0
  5  6  1  0
  6  7  2  0
  6  8  1  0
  8  9  1  0
  9 10  1  0
 10 11  1  0
 11 12  1  0
 12 13  1  0
 13 14  1  0
 14 15  1  0
  2 16  1  0
 16 17  1  0
 17 18  1  0
 18 19  2  0
 19 20  1  0
 20 21  1  0
 15 11  1  0
 21 17  2  0
  1 22  1  0
  1 23  1  0
  1 24  1  0
  3 25  1  0
  3 26  1  0
  4 27  1  0
  4 28  1  0
  5 29  1  0
  8 30  1  0
  8 31  1  0
  9 32  1  0
  9 33  1  0
 10 34  1  0
 10 35  1  0
 12 36  1  0
 12 37  1  0
 13 38  1  0
 13 39  1  0
 14 40  1  0
 14 41  1  0
 15 42  1  0
 15 43  1  0
 16 44  1  0
 16 45  1  0
 18 46  1  0
 19 47  1  0
M  END
>  <Energy>  (529) 
293.99768556843969

>  <compound_id>  (529) 
40198

>  <target_id>  (529) 
1

>  <reference_id>  (529) 
30

>  <inspiration_ids>  (529) 
[59, 30]

>  <energy_score>  (529) 
228.22102094552355

>  <distance_score>  (529) 
13.286295689423689

>  <path>  (529) 
/opt/xchem-fragalysis-2/maxwin/BulkDock/SCRATCH/511015/C40198-P30/C40198-P30.minimised.mol

>  <scratch_subdir>  (529) 
/opt/xchem-fragalysis-2/maxwin/BulkDock/SCRATCH/511015/C40198-P30

>  <fragmenstein_runtime>  (529) 
13.377474308013916

>  <fragmenstein_outcome>  (529) 
too moved

>  <fragmenstein_mode>  (529) 
expansion

>  <fragmenstein_error>  (529) 


$$$$
C40199-P59
     RDKit          3D

 50 51  0  0  0  0  0  0  0  0999 V2000
  -10.9505  -15.0186   27.0874 C   0  0  0  0  0  0  0  0  0  0  0  0
   -9.7742  -15.9898   26.5149 C   0  0  0  0  0  0  0  0  0  0  0  0
   -8.5649  -15.1791   26.0762 C   0  0  0  0  0  0  0  0  0  0  0  0
   -7.5087  -14.8308   24.9910 N   0  0  0  0  0  0  0  0  0  0  0  0
   -6.9390  -13.0293   25.8500 C   0  0  0  0  0  0  0  0  0  0  0  0
   -7.1476  -10.9211   25.9441 C   0  0  0  0  0  0  0  0  0  0  0  0
   -7.2393   -9.2030   27.0623 N   0  0  0  0  0  0  0  0  0  0  0  0
   -7.6410   -9.1152   28.7956 C   0  0  0  0  0  0  0  0  0  0  0  0
   -7.5336   -7.7774   29.4780 C   0  0  0  0  0  0  0  0  0  0  0  0
   -6.8442   -6.9345   28.4790 C   0  0  0  0  0  0  0  0  0  0  0  0
   -6.3672   -7.8809   27.3218 C   0  0  0  0  0  0  0  0  0  0  0  0
   -7.3004  -16.4972   23.7471 C   0  0  0  0  0  0  0  0  0  0  0  0
   -6.6055  -18.2079   23.6777 C   0  0  0  0  0  0  0  0  0  0  0  0
   -7.2997  -17.4052   22.0551 C   0  0  0  0  0  0  0  0  0  0  0  0
   -8.3611  -17.8833   21.8595 O   0  0  0  0  0  0  0  0  0  0  0  0
   -6.0621  -17.5065   21.2824 N   0  0  0  0  0  0  0  0  0  0  0  0
   -5.7548  -18.2552   20.1648 C   0  0  0  0  0  0  0  0  0  0  0  0
   -4.5760  -18.5289   19.5099 C   0  0  0  0  0  0  0  0  0  0  0  0
   -4.9601  -19.2027   18.3216 C   0  0  0  0  0  0  0  0  0  0  0  0
   -4.1265  -19.7019   17.2069 C   0  0  0  0  0  0  0  0  0  0  0  0
   -6.2818  -19.3501   18.2752 N   0  0  0  0  0  0  0  0  0  0  0  0
   -6.7590  -18.8206   19.4554 O   0  0  0  0  0  0  0  0  0  0  0  0
  -10.5691  -14.0755   27.5037 H   0  0  0  0  0  0  0  0  0  0  0  0
  -11.7370  -14.7583   26.3770 H   0  0  0  0  0  0  0  0  0  0  0  0
  -11.5971  -15.4296   27.8298 H   0  0  0  0  0  0  0  0  0  0  0  0
  -10.1687  -16.5505   25.6770 H   0  0  0  0  0  0  0  0  0  0  0  0
   -9.3801  -16.7320   27.1905 H   0  0  0  0  0  0  0  0  0  0  0  0
   -9.1472  -14.9875   25.2605 H   0  0  0  0  0  0  0  0  0  0  0  0
   -8.5398  -14.3889   26.8268 H   0  0  0  0  0  0  0  0  0  0  0  0
   -6.2005  -12.7228   25.0925 H   0  0  0  0  0  0  0  0  0  0  0  0
   -6.8006  -13.2733   26.8815 H   0  0  0  0  0  0  0  0  0  0  0  0
   -7.1049  -10.6004   24.9199 H   0  0  0  0  0  0  0  0  0  0  0  0
   -6.1975  -10.9902   26.3487 H   0  0  0  0  0  0  0  0  0  0  0  0
   -8.7194   -9.2735   28.8842 H   0  0  0  0  0  0  0  0  0  0  0  0
   -7.0380   -9.7748   29.4097 H   0  0  0  0  0  0  0  0  0  0  0  0
   -8.5358   -7.4006   29.7092 H   0  0  0  0  0  0  0  0  0  0  0  0
   -7.0456   -7.8928   30.4443 H   0  0  0  0  0  0  0  0  0  0  0  0
   -6.1684   -6.2943   28.9955 H   0  0  0  0  0  0  0  0  0  0  0  0
   -7.4378   -6.1088   28.0947 H   0  0  0  0  0  0  0  0  0  0  0  0
   -6.4459   -7.2245   26.4752 H   0  0  0  0  0  0  0  0  0  0  0  0
   -5.3388   -8.0751   27.5307 H   0  0  0  0  0  0  0  0  0  0  0  0
   -8.1750  -16.5044   23.1391 H   0  0  0  0  0  0  0  0  0  0  0  0
   -5.7626  -18.4947   23.0460 H   0  0  0  0  0  0  0  0  0  0  0  0
   -6.2549  -18.5920   24.5893 H   0  0  0  0  0  0  0  0  0  0  0  0
   -7.3922  -18.9299   23.3716 H   0  0  0  0  0  0  0  0  0  0  0  0
   -5.3231  -17.0380   21.7817 H   0  0  0  0  0  0  0  0  0  0  0  0
   -3.5823  -18.2294   19.8025 H   0  0  0  0  0  0  0  0  0  0  0  0
   -4.5006  -19.3435   16.2440 H   0  0  0  0  0  0  0  0  0  0  0  0
   -4.0981  -20.7922   17.2069 H   0  0  0  0  0  0  0  0  0  0  0  0
   -3.0958  -19.3458   17.3093 H   0  0  0  0  0  0  0  0  0  0  0  0
  1  2  1  0
  2  3  1  0
  3  4  1  0
  4  5  1  0
  5  6  1  0
  6  7  1  0
  7  8  1  0
  8  9  1  0
  9 10  1  0
 10 11  1  0
  4 12  1  0
 12 13  1  0
 12 14  1  0
 14 15  2  0
 14 16  1  0
 16 17  1  0
 17 18  2  0
 18 19  1  0
 19 20  1  0
 19 21  2  0
 21 22  1  0
 11  7  1  0
 22 17  1  0
  1 23  1  0
  1 24  1  0
  1 25  1  0
  2 26  1  0
  2 27  1  0
  3 28  1  0
  3 29  1  0
  5 30  1  0
  5 31  1  0
  6 32  1  0
  6 33  1  0
  8 34  1  0
  8 35  1  0
  9 36  1  0
  9 37  1  0
 10 38  1  0
 10 39  1  0
 11 40  1  0
 11 41  1  0
 12 42  1  0
 13 43  1  0
 13 44  1  0
 13 45  1  0
 16 46  1  0
 18 47  1  0
 20 48  1  0
 20 49  1  0
 20 50  1  0
M  END
>  <Energy>  (530) 
1039.2658525743893

>  <compound_id>  (530) 
40199

>  <target_id>  (530) 
1

>  <reference_id>  (530) 
59

>  <inspiration_ids>  (530) 
[59, 30]

>  <energy_score>  (530) 
930.3752230332024

>  <distance_score>  (530) 
11.178243120338635

>  <path>  (530) 
/opt/xchem-fragalysis-2/maxwin/BulkDock/SCRATCH/511015/C40199-P59/C40199-P59.minimised.mol

>  <scratch_subdir>  (530) 
/opt/xchem-fragalysis-2/maxwin/BulkDock/SCRATCH/511015/C40199-P59

>  <fragmenstein_runtime>  (530) 
25.212655305862427

>  <fragmenstein_outcome>  (530) 
too moved

>  <fragmenstein_mode>  (530) 
expansion

>  <fragmenstein_error>  (530) 


$$$$
C40199-P30
     RDKit          3D

 50 51  0  0  0  0  0  0  0  0999 V2000
  -15.2596  -23.7635   24.4088 C   0  0  0  0  0  0  0  0  0  0  0  0
  -14.1177  -24.2452   23.5135 C   0  0  0  0  0  0  0  0  0  0  0  0
  -13.4769  -23.0864   22.7429 C   0  0  0  0  0  0  0  0  0  0  0  0
  -12.5508  -23.2498   21.5934 N   0  0  0  0  0  0  0  0  0  0  0  0
  -11.6130  -21.6140   21.6967 C   0  0  0  0  0  0  0  0  0  0  0  0
  -10.8917  -20.4165   23.1400 C   0  0  0  0  0  0  0  0  0  0  0  0
   -9.8648  -18.7790   23.5065 N   0  0  0  0  0  0  0  0  0  0  0  0
   -8.2111  -18.4875   22.8217 C   0  0  0  0  0  0  0  0  0  0  0  0
   -7.6796  -16.8425   23.2988 C   0  0  0  0  0  0  0  0  0  0  0  0
   -8.8000  -16.0126   24.8997 C   0  0  0  0  0  0  0  0  0  0  0  0
  -10.3436  -17.1201   24.4735 C   0  0  0  0  0  0  0  0  0  0  0  0
  -12.9501  -24.3949   20.1468 C   0  0  0  0  0  0  0  0  0  0  0  0
  -13.7326  -24.1746   18.4486 C   0  0  0  0  0  0  0  0  0  0  0  0
  -13.6566  -25.9971   19.6719 C   0  0  0  0  0  0  0  0  0  0  0  0
  -14.6973  -26.3985   20.1016 O   0  0  0  0  0  0  0  0  0  0  0  0
  -12.7543  -26.5721   18.6263 N   0  0  0  0  0  0  0  0  0  0  0  0
  -12.9080  -27.6452   17.8162 C   0  0  0  0  0  0  0  0  0  0  0  0
  -12.0965  -27.9533   16.7524 C   0  0  0  0  0  0  0  0  0  0  0  0
  -12.9198  -28.7106   15.8990 C   0  0  0  0  0  0  0  0  0  0  0  0
  -12.6296  -29.1254   14.5069 C   0  0  0  0  0  0  0  0  0  0  0  0
  -14.1015  -28.9745   16.4737 N   0  0  0  0  0  0  0  0  0  0  0  0
  -14.0932  -28.2858   17.6901 O   0  0  0  0  0  0  0  0  0  0  0  0
  -16.0627  -23.2960   23.8324 H   0  0  0  0  0  0  0  0  0  0  0  0
  -14.8971  -23.0313   25.1381 H   0  0  0  0  0  0  0  0  0  0  0  0
  -15.6855  -24.6074   24.9609 H   0  0  0  0  0  0  0  0  0  0  0  0
  -13.3861  -24.6699   24.2054 H   0  0  0  0  0  0  0  0  0  0  0  0
  -14.4718  -25.0387   22.8516 H   0  0  0  0  0  0  0  0  0  0  0  0
  -14.2211  -22.3210   22.5361 H   0  0  0  0  0  0  0  0  0  0  0  0
  -12.8664  -22.6030   23.5199 H   0  0  0  0  0  0  0  0  0  0  0  0
  -10.7300  -21.8390   21.0970 H   0  0  0  0  0  0  0  0  0  0  0  0
  -12.3018  -20.9712   21.1422 H   0  0  0  0  0  0  0  0  0  0  0  0
  -10.3133  -21.2350   23.5609 H   0  0  0  0  0  0  0  0  0  0  0  0
  -11.7306  -20.3707   23.8516 H   0  0  0  0  0  0  0  0  0  0  0  0
   -8.0284  -18.4635   21.7489 H   0  0  0  0  0  0  0  0  0  0  0  0
   -7.5509  -19.2606   23.1755 H   0  0  0  0  0  0  0  0  0  0  0  0
   -7.8975  -16.5306   22.2739 H   0  0  0  0  0  0  0  0  0  0  0  0
   -6.7262  -17.2789   23.6150 H   0  0  0  0  0  0  0  0  0  0  0  0
   -8.6394  -14.9707   25.1462 H   0  0  0  0  0  0  0  0  0  0  0  0
   -8.6101  -16.2628   25.9608 H   0  0  0  0  0  0  0  0  0  0  0  0
  -11.2301  -16.6599   24.0229 H   0  0  0  0  0  0  0  0  0  0  0  0
  -10.4553  -17.1972   25.5368 H   0  0  0  0  0  0  0  0  0  0  0  0
  -11.9151  -24.6553   20.0908 H   0  0  0  0  0  0  0  0  0  0  0  0
  -13.4623  -24.8480   17.6227 H   0  0  0  0  0  0  0  0  0  0  0  0
  -14.8189  -24.3310   18.4321 H   0  0  0  0  0  0  0  0  0  0  0  0
  -13.4804  -23.2077   18.0656 H   0  0  0  0  0  0  0  0  0  0  0  0
  -11.9245  -26.0233   18.5710 H   0  0  0  0  0  0  0  0  0  0  0  0
  -11.1273  -27.5342   16.5270 H   0  0  0  0  0  0  0  0  0  0  0  0
  -13.1301  -28.4573   13.7989 H   0  0  0  0  0  0  0  0  0  0  0  0
  -12.9782  -30.1471   14.3246 H   0  0  0  0  0  0  0  0  0  0  0  0
  -11.5542  -29.0964   14.3038 H   0  0  0  0  0  0  0  0  0  0  0  0
  1  2  1  0
  2  3  1  0
  3  4  1  0
  4  5  1  0
  5  6  1  0
  6  7  1  0
  7  8  1  0
  8  9  1  0
  9 10  1  0
 10 11  1  0
  4 12  1  0
 12 13  1  0
 12 14  1  0
 14 15  2  0
 14 16  1  0
 16 17  1  0
 17 18  2  0
 18 19  1  0
 19 20  1  0
 19 21  2  0
 21 22  1  0
 11  7  1  0
 22 17  1  0
  1 23  1  0
  1 24  1  0
  1 25  1  0
  2 26  1  0
  2 27  1  0
  3 28  1  0
  3 29  1  0
  5 30  1  0
  5 31  1  0
  6 32  1  0
  6 33  1  0
  8 34  1  0
  8 35  1  0
  9 36  1  0
  9 37  1  0
 10 38  1  0
 10 39  1  0
 11 40  1  0
 11 41  1  0
 12 42  1  0
 13 43  1  0
 13 44  1  0
 13 45  1  0
 16 46  1  0
 18 47  1  0
 20 48  1  0
 20 49  1  0
 20 50  1  0
M  END
>  <Energy>  (531) 
784.17704391452867

>  <compound_id>  (531) 
40199

>  <target_id>  (531) 
1

>  <reference_id>  (531) 
30

>  <inspiration_ids>  (531) 
[59, 30]

>  <energy_score>  (531) 
675.2864143733402

>  <distance_score>  (531) 
13.81843938032731

>  <path>  (531) 
/opt/xchem-fragalysis-2/maxwin/BulkDock/SCRATCH/511015/C40199-P30/C40199-P30.minimised.mol

>  <scratch_subdir>  (531) 
/opt/xchem-fragalysis-2/maxwin/BulkDock/SCRATCH/511015/C40199-P30

>  <fragmenstein_runtime>  (531) 
22.634516716003418

>  <fragmenstein_outcome>  (531) 
too moved

>  <fragmenstein_mode>  (531) 
expansion

>  <fragmenstein_error>  (531) 


$$$$
C29733-P30
     RDKit          3D

 45 47  0  0  0  0  0  0  0  0999 V2000
    6.6001  -15.5015   13.2036 O   0  0  0  0  0  0  0  0  0  0  0  0
    6.5933  -16.1846   14.1867 C   0  0  0  0  0  0  0  0  0  0  0  0
    7.2204  -15.9887   15.4727 N   0  0  0  0  0  0  0  0  0  0  0  0
    7.9868  -14.8396   16.0191 C   0  0  0  0  0  0  0  0  0  0  0  0
    9.0917  -14.0615   15.2248 C   0  0  0  0  0  0  0  0  0  0  0  0
    9.5409  -12.7921   16.0267 C   0  0  0  0  0  0  0  0  0  0  0  0
   10.6352  -11.9850   15.4671 N   0  0  0  0  0  0  0  0  0  0  0  0
   10.8085  -10.7347   16.2340 C   0  0  0  0  0  0  0  0  0  0  0  0
   12.3092  -10.4786   16.3164 C   0  0  0  0  0  0  0  0  0  0  0  0
   12.9104  -11.5026   15.3798 C   0  0  0  0  0  0  0  0  0  0  0  0
   11.9339  -12.6588   15.4877 C   0  0  0  0  0  0  0  0  0  0  0  0
    5.6645  -17.4467   14.0918 C   0  0  0  0  0  0  0  0  0  0  0  0
    5.3569  -17.9958   12.8334 C   0  0  0  0  0  0  0  0  0  0  0  0
    4.5235  -19.1309   12.6802 C   0  0  0  0  0  0  0  0  0  0  0  0
    3.9737  -19.7778   13.7871 C   0  0  0  0  0  0  0  0  0  0  0  0
    3.4596  -21.1031   13.7003 N   0  0  0  0  0  0  0  0  0  0  0  0
    3.2285  -21.7786   14.8936 N   0  0  0  0  0  0  0  0  0  0  0  0
    3.1593  -23.0309   14.5890 C   0  0  0  0  0  0  0  0  0  0  0  0
    3.3876  -23.3380   13.1532 C   0  0  0  0  0  0  0  0  0  0  0  0
    3.6189  -21.9687   12.5924 C   0  0  0  0  0  0  0  0  0  0  0  0
    3.9730  -21.7579   11.4423 O   0  0  0  0  0  0  0  0  0  0  0  0
    4.1031  -19.1245   15.0219 C   0  0  0  0  0  0  0  0  0  0  0  0
    4.9313  -17.9765   15.1678 C   0  0  0  0  0  0  0  0  0  0  0  0
    7.0699  -16.8118   16.0419 H   0  0  0  0  0  0  0  0  0  0  0  0
    8.4400  -15.2185   16.9431 H   0  0  0  0  0  0  0  0  0  0  0  0
    7.2247  -14.1173   16.3276 H   0  0  0  0  0  0  0  0  0  0  0  0
    8.6990  -13.7595   14.2477 H   0  0  0  0  0  0  0  0  0  0  0  0
    9.9401  -14.7316   15.0496 H   0  0  0  0  0  0  0  0  0  0  0  0
    9.7923  -13.1020   17.0503 H   0  0  0  0  0  0  0  0  0  0  0  0
    8.6531  -12.1499   16.1066 H   0  0  0  0  0  0  0  0  0  0  0  0
   10.4004  -10.8082   17.2488 H   0  0  0  0  0  0  0  0  0  0  0  0
   10.2895   -9.9259   15.7153 H   0  0  0  0  0  0  0  0  0  0  0  0
   12.5925   -9.4586   16.0562 H   0  0  0  0  0  0  0  0  0  0  0  0
   12.6592  -10.6737   17.3369 H   0  0  0  0  0  0  0  0  0  0  0  0
   12.9314  -11.1256   14.3513 H   0  0  0  0  0  0  0  0  0  0  0  0
   13.9280  -11.7829   15.6663 H   0  0  0  0  0  0  0  0  0  0  0  0
   12.0447  -13.3567   14.6524 H   0  0  0  0  0  0  0  0  0  0  0  0
   12.0992  -13.2020   16.4269 H   0  0  0  0  0  0  0  0  0  0  0  0
    5.7897  -17.5526   11.9370 H   0  0  0  0  0  0  0  0  0  0  0  0
    4.3786  -19.5089   11.6719 H   0  0  0  0  0  0  0  0  0  0  0  0
    2.9663  -23.8308   15.3161 H   0  0  0  0  0  0  0  0  0  0  0  0
    4.2833  -23.9548   13.0522 H   0  0  0  0  0  0  0  0  0  0  0  0
    2.5238  -23.8353   12.7154 H   0  0  0  0  0  0  0  0  0  0  0  0
    3.6021  -19.5257   15.9005 H   0  0  0  0  0  0  0  0  0  0  0  0
    4.9711  -17.4978   16.1373 H   0  0  0  0  0  0  0  0  0  0  0  0
  1  2  2  0
  2  3  1  0
  3  4  1  0
  4  5  1  0
  5  6  1  0
  6  7  1  0
  7  8  1  0
  8  9  1  0
  9 10  1  0
 10 11  1  0
  2 12  1  0
 12 13  2  0
 13 14  1  0
 14 15  2  0
 15 16  1  0
 16 17  1  0
 17 18  2  0
 18 19  1  0
 19 20  1  0
 20 21  2  0
 15 22  1  0
 22 23  2  0
 11  7  1  0
 23 12  1  0
 20 16  1  0
  3 24  1  0
  4 25  1  0
  4 26  1  0
  5 27  1  0
  5 28  1  0
  6 29  1  0
  6 30  1  0
  8 31  1  0
  8 32  1  0
  9 33  1  0
  9 34  1  0
 10 35  1  0
 10 36  1  0
 11 37  1  0
 11 38  1  0
 13 39  1  0
 14 40  1  0
 18 41  1  0
 19 42  1  0
 19 43  1  0
 22 44  1  0
 23 45  1  0
M  END
>  <Energy>  (532) 
63.904483758279817

>  <compound_id>  (532) 
29733

>  <target_id>  (532) 
1

>  <reference_id>  (532) 
30

>  <inspiration_ids>  (532) 
[30, 98]

>  <energy_score>  (532) 
-24.974931948858796

>  <distance_score>  (532) 
14.424136465872742

>  <path>  (532) 
/opt/xchem-fragalysis-2/maxwin/BulkDock/SCRATCH/511015/C29733-P30/C29733-P30.minimised.mol

>  <scratch_subdir>  (532) 
/opt/xchem-fragalysis-2/maxwin/BulkDock/SCRATCH/511015/C29733-P30

>  <fragmenstein_runtime>  (532) 
23.85884976387024

>  <fragmenstein_outcome>  (532) 
too moved

>  <fragmenstein_mode>  (532) 
expansion

>  <fragmenstein_error>  (532) 


$$$$
C29733-P98
     RDKit          3D

 45 47  0  0  0  0  0  0  0  0999 V2000
    1.0187  -19.9865   14.0613 O   0  0  0  0  0  0  0  0  0  0  0  0
    0.4307  -19.6408   13.0783 C   0  0  0  0  0  0  0  0  0  0  0  0
    1.0027  -19.0711   11.7972 N   0  0  0  0  0  0  0  0  0  0  0  0
    2.4813  -18.8713   11.3338 C   0  0  0  0  0  0  0  0  0  0  0  0
    3.6380  -17.8096   11.8050 C   0  0  0  0  0  0  0  0  0  0  0  0
    5.2061  -18.1529   11.9229 C   0  0  0  0  0  0  0  0  0  0  0  0
    6.2768  -17.1095   11.7347 N   0  0  0  0  0  0  0  0  0  0  0  0
    6.2661  -15.9190   12.5753 C   0  0  0  0  0  0  0  0  0  0  0  0
    7.7026  -15.5413   12.9397 C   0  0  0  0  0  0  0  0  0  0  0  0
    8.5223  -16.3922   12.0014 C   0  0  0  0  0  0  0  0  0  0  0  0
    7.6476  -17.6350   11.8415 C   0  0  0  0  0  0  0  0  0  0  0  0
   -1.4669  -20.0671   13.2526 C   0  0  0  0  0  0  0  0  0  0  0  0
   -2.4598  -20.5634   13.9486 C   0  0  0  0  0  0  0  0  0  0  0  0
   -4.0874  -20.8363   13.5561 C   0  0  0  0  0  0  0  0  0  0  0  0
   -5.3076  -20.7936   12.5681 C   0  0  0  0  0  0  0  0  0  0  0  0
   -6.9799  -21.3060   12.7148 N   0  0  0  0  0  0  0  0  0  0  0  0
   -7.1475  -22.7119   12.4678 N   0  0  0  0  0  0  0  0  0  0  0  0
   -8.3172  -22.9840   11.9630 C   0  0  0  0  0  0  0  0  0  0  0  0
   -9.1164  -21.8310   11.6174 C   0  0  0  0  0  0  0  0  0  0  0  0
   -8.0867  -20.7516   11.8017 C   0  0  0  0  0  0  0  0  0  0  0  0
   -8.2673  -19.6533   11.3369 O   0  0  0  0  0  0  0  0  0  0  0  0
   -4.5629  -20.4298   11.6694 C   0  0  0  0  0  0  0  0  0  0  0  0
   -3.1616  -20.2751   12.0943 C   0  0  0  0  0  0  0  0  0  0  0  0
    0.2450  -18.8031   11.1941 H   0  0  0  0  0  0  0  0  0  0  0  0
    2.4102  -18.8103   10.2412 H   0  0  0  0  0  0  0  0  0  0  0  0
    2.9183  -19.8517   11.5618 H   0  0  0  0  0  0  0  0  0  0  0  0
    3.5826  -17.0949   10.9897 H   0  0  0  0  0  0  0  0  0  0  0  0
    3.3676  -17.4219   12.7745 H   0  0  0  0  0  0  0  0  0  0  0  0
    5.3921  -18.9238   11.1642 H   0  0  0  0  0  0  0  0  0  0  0  0
    5.3509  -18.6367   12.8976 H   0  0  0  0  0  0  0  0  0  0  0  0
    5.8809  -15.1129   11.9556 H   0  0  0  0  0  0  0  0  0  0  0  0
    5.6822  -16.0652   13.4815 H   0  0  0  0  0  0  0  0  0  0  0  0
    7.9043  -14.4726   12.8231 H   0  0  0  0  0  0  0  0  0  0  0  0
    7.9102  -15.8228   13.9789 H   0  0  0  0  0  0  0  0  0  0  0  0
    8.6476  -15.8868   11.0361 H   0  0  0  0  0  0  0  0  0  0  0  0
    9.5123  -16.6261   12.4030 H   0  0  0  0  0  0  0  0  0  0  0  0
    7.7542  -18.2782   12.7244 H   0  0  0  0  0  0  0  0  0  0  0  0
    7.9279  -18.2087   10.9528 H   0  0  0  0  0  0  0  0  0  0  0  0
   -2.7167  -21.0419   14.7728 H   0  0  0  0  0  0  0  0  0  0  0  0
   -4.0343  -21.5251   14.4695 H   0  0  0  0  0  0  0  0  0  0  0  0
   -8.6751  -24.0052   11.7698 H   0  0  0  0  0  0  0  0  0  0  0  0
   -9.9698  -21.7415   12.2897 H   0  0  0  0  0  0  0  0  0  0  0  0
   -9.4447  -21.9018   10.5802 H   0  0  0  0  0  0  0  0  0  0  0  0
   -4.7938  -20.4251   10.6053 H   0  0  0  0  0  0  0  0  0  0  0  0
   -3.3822  -19.6771   11.0751 H   0  0  0  0  0  0  0  0  0  0  0  0
  1  2  2  0
  2  3  1  0
  3  4  1  0
  4  5  1  0
  5  6  1  0
  6  7  1  0
  7  8  1  0
  8  9  1  0
  9 10  1  0
 10 11  1  0
  2 12  1  0
 12 13  2  0
 13 14  1  0
 14 15  2  0
 15 16  1  0
 16 17  1  0
 17 18  2  0
 18 19  1  0
 19 20  1  0
 20 21  2  0
 15 22  1  0
 22 23  2  0
 11  7  1  0
 23 12  1  0
 20 16  1  0
  3 24  1  0
  4 25  1  0
  4 26  1  0
  5 27  1  0
  5 28  1  0
  6 29  1  0
  6 30  1  0
  8 31  1  0
  8 32  1  0
  9 33  1  0
  9 34  1  0
 10 35  1  0
 10 36  1  0
 11 37  1  0
 11 38  1  0
 13 39  1  0
 14 40  1  0
 18 41  1  0
 19 42  1  0
 19 43  1  0
 22 44  1  0
 23 45  1  0
M  END
>  <Energy>  (533) 
733.1027454912936

>  <compound_id>  (533) 
29733

>  <target_id>  (533) 
1

>  <reference_id>  (533) 
98

>  <inspiration_ids>  (533) 
[30, 98]

>  <energy_score>  (533) 
644.2233297841588

>  <distance_score>  (533) 
13.4704343055786

>  <path>  (533) 
/opt/xchem-fragalysis-2/maxwin/BulkDock/SCRATCH/511015/C29733-P98/C29733-P98.minimised.mol

>  <scratch_subdir>  (533) 
/opt/xchem-fragalysis-2/maxwin/BulkDock/SCRATCH/511015/C29733-P98

>  <fragmenstein_runtime>  (533) 
12.843663454055786

>  <fragmenstein_outcome>  (533) 
too moved

>  <fragmenstein_mode>  (533) 
expansion

>  <fragmenstein_error>  (533) 


$$$$
C29733-P30
     RDKit          3D

 45 47  0  0  0  0  0  0  0  0999 V2000
    6.6001  -15.5015   13.2036 O   0  0  0  0  0  0  0  0  0  0  0  0
    6.5933  -16.1846   14.1867 C   0  0  0  0  0  0  0  0  0  0  0  0
    7.2204  -15.9887   15.4727 N   0  0  0  0  0  0  0  0  0  0  0  0
    7.9868  -14.8396   16.0191 C   0  0  0  0  0  0  0  0  0  0  0  0
    9.0917  -14.0615   15.2248 C   0  0  0  0  0  0  0  0  0  0  0  0
    9.5409  -12.7921   16.0267 C   0  0  0  0  0  0  0  0  0  0  0  0
   10.6352  -11.9850   15.4671 N   0  0  0  0  0  0  0  0  0  0  0  0
   10.8085  -10.7347   16.2340 C   0  0  0  0  0  0  0  0  0  0  0  0
   12.3092  -10.4786   16.3164 C   0  0  0  0  0  0  0  0  0  0  0  0
   12.9104  -11.5026   15.3798 C   0  0  0  0  0  0  0  0  0  0  0  0
   11.9339  -12.6588   15.4877 C   0  0  0  0  0  0  0  0  0  0  0  0
    5.6645  -17.4467   14.0918 C   0  0  0  0  0  0  0  0  0  0  0  0
    5.3569  -17.9958   12.8334 C   0  0  0  0  0  0  0  0  0  0  0  0
    4.5235  -19.1309   12.6802 C   0  0  0  0  0  0  0  0  0  0  0  0
    3.9737  -19.7778   13.7871 C   0  0  0  0  0  0  0  0  0  0  0  0
    3.4596  -21.1031   13.7003 N   0  0  0  0  0  0  0  0  0  0  0  0
    3.2285  -21.7786   14.8936 N   0  0  0  0  0  0  0  0  0  0  0  0
    3.1593  -23.0309   14.5890 C   0  0  0  0  0  0  0  0  0  0  0  0
    3.3876  -23.3380   13.1532 C   0  0  0  0  0  0  0  0  0  0  0  0
    3.6189  -21.9687   12.5924 C   0  0  0  0  0  0  0  0  0  0  0  0
    3.9730  -21.7579   11.4423 O   0  0  0  0  0  0  0  0  0  0  0  0
    4.1031  -19.1245   15.0219 C   0  0  0  0  0  0  0  0  0  0  0  0
    4.9313  -17.9765   15.1678 C   0  0  0  0  0  0  0  0  0  0  0  0
    7.0699  -16.8118   16.0419 H   0  0  0  0  0  0  0  0  0  0  0  0
    8.4400  -15.2185   16.9431 H   0  0  0  0  0  0  0  0  0  0  0  0
    7.2247  -14.1173   16.3276 H   0  0  0  0  0  0  0  0  0  0  0  0
    8.6990  -13.7595   14.2477 H   0  0  0  0  0  0  0  0  0  0  0  0
    9.9401  -14.7316   15.0496 H   0  0  0  0  0  0  0  0  0  0  0  0
    9.7923  -13.1020   17.0503 H   0  0  0  0  0  0  0  0  0  0  0  0
    8.6531  -12.1499   16.1066 H   0  0  0  0  0  0  0  0  0  0  0  0
   10.4004  -10.8082   17.2488 H   0  0  0  0  0  0  0  0  0  0  0  0
   10.2895   -9.9259   15.7153 H   0  0  0  0  0  0  0  0  0  0  0  0
   12.5925   -9.4586   16.0562 H   0  0  0  0  0  0  0  0  0  0  0  0
   12.6592  -10.6737   17.3369 H   0  0  0  0  0  0  0  0  0  0  0  0
   12.9314  -11.1256   14.3513 H   0  0  0  0  0  0  0  0  0  0  0  0
   13.9280  -11.7829   15.6663 H   0  0  0  0  0  0  0  0  0  0  0  0
   12.0447  -13.3567   14.6524 H   0  0  0  0  0  0  0  0  0  0  0  0
   12.0992  -13.2020   16.4269 H   0  0  0  0  0  0  0  0  0  0  0  0
    5.7897  -17.5526   11.9370 H   0  0  0  0  0  0  0  0  0  0  0  0
    4.3786  -19.5089   11.6719 H   0  0  0  0  0  0  0  0  0  0  0  0
    2.9663  -23.8308   15.3161 H   0  0  0  0  0  0  0  0  0  0  0  0
    4.2833  -23.9548   13.0522 H   0  0  0  0  0  0  0  0  0  0  0  0
    2.5238  -23.8353   12.7154 H   0  0  0  0  0  0  0  0  0  0  0  0
    3.6021  -19.5257   15.9005 H   0  0  0  0  0  0  0  0  0  0  0  0
    4.9711  -17.4978   16.1373 H   0  0  0  0  0  0  0  0  0  0  0  0
  1  2  2  0
  2  3  1  0
  3  4  1  0
  4  5  1  0
  5  6  1  0
  6  7  1  0
  7  8  1  0
  8  9  1  0
  9 10  1  0
 10 11  1  0
  2 12  1  0
 12 13  2  0
 13 14  1  0
 14 15  2  0
 15 16  1  0
 16 17  1  0
 17 18  2  0
 18 19  1  0
 19 20  1  0
 20 21  2  0
 15 22  1  0
 22 23  2  0
 11  7  1  0
 23 12  1  0
 20 16  1  0
  3 24  1  0
  4 25  1  0
  4 26  1  0
  5 27  1  0
  5 28  1  0
  6 29  1  0
  6 30  1  0
  8 31  1  0
  8 32  1  0
  9 33  1  0
  9 34  1  0
 10 35  1  0
 10 36  1  0
 11 37  1  0
 11 38  1  0
 13 39  1  0
 14 40  1  0
 18 41  1  0
 19 42  1  0
 19 43  1  0
 22 44  1  0
 23 45  1  0
M  END
>  <Energy>  (534) 
63.904483758279817

>  <compound_id>  (534) 
29733

>  <target_id>  (534) 
1

>  <reference_id>  (534) 
30

>  <inspiration_ids>  (534) 
[30, 98]

>  <energy_score>  (534) 
-24.974931948858796

>  <distance_score>  (534) 
14.424136465872742

>  <path>  (534) 
/opt/xchem-fragalysis-2/maxwin/BulkDock/SCRATCH/511015/C29733-P30/C29733-P30.minimised.mol

>  <scratch_subdir>  (534) 
/opt/xchem-fragalysis-2/maxwin/BulkDock/SCRATCH/511015/C29733-P30

>  <fragmenstein_runtime>  (534) 
24.092076301574707

>  <fragmenstein_outcome>  (534) 
too moved

>  <fragmenstein_mode>  (534) 
expansion

>  <fragmenstein_error>  (534) 


$$$$
C29733-P98
     RDKit          3D

 45 47  0  0  0  0  0  0  0  0999 V2000
    1.0187  -19.9865   14.0613 O   0  0  0  0  0  0  0  0  0  0  0  0
    0.4307  -19.6408   13.0783 C   0  0  0  0  0  0  0  0  0  0  0  0
    1.0027  -19.0711   11.7972 N   0  0  0  0  0  0  0  0  0  0  0  0
    2.4813  -18.8713   11.3338 C   0  0  0  0  0  0  0  0  0  0  0  0
    3.6380  -17.8096   11.8050 C   0  0  0  0  0  0  0  0  0  0  0  0
    5.2061  -18.1529   11.9229 C   0  0  0  0  0  0  0  0  0  0  0  0
    6.2768  -17.1095   11.7347 N   0  0  0  0  0  0  0  0  0  0  0  0
    6.2661  -15.9190   12.5753 C   0  0  0  0  0  0  0  0  0  0  0  0
    7.7026  -15.5413   12.9397 C   0  0  0  0  0  0  0  0  0  0  0  0
    8.5223  -16.3922   12.0014 C   0  0  0  0  0  0  0  0  0  0  0  0
    7.6476  -17.6350   11.8415 C   0  0  0  0  0  0  0  0  0  0  0  0
   -1.4669  -20.0671   13.2526 C   0  0  0  0  0  0  0  0  0  0  0  0
   -2.4598  -20.5634   13.9486 C   0  0  0  0  0  0  0  0  0  0  0  0
   -4.0874  -20.8363   13.5561 C   0  0  0  0  0  0  0  0  0  0  0  0
   -5.3076  -20.7936   12.5681 C   0  0  0  0  0  0  0  0  0  0  0  0
   -6.9799  -21.3060   12.7148 N   0  0  0  0  0  0  0  0  0  0  0  0
   -7.1475  -22.7119   12.4678 N   0  0  0  0  0  0  0  0  0  0  0  0
   -8.3172  -22.9840   11.9630 C   0  0  0  0  0  0  0  0  0  0  0  0
   -9.1164  -21.8310   11.6174 C   0  0  0  0  0  0  0  0  0  0  0  0
   -8.0867  -20.7516   11.8017 C   0  0  0  0  0  0  0  0  0  0  0  0
   -8.2673  -19.6533   11.3369 O   0  0  0  0  0  0  0  0  0  0  0  0
   -4.5629  -20.4298   11.6694 C   0  0  0  0  0  0  0  0  0  0  0  0
   -3.1616  -20.2751   12.0943 C   0  0  0  0  0  0  0  0  0  0  0  0
    0.2450  -18.8031   11.1941 H   0  0  0  0  0  0  0  0  0  0  0  0
    2.4102  -18.8103   10.2412 H   0  0  0  0  0  0  0  0  0  0  0  0
    2.9183  -19.8517   11.5618 H   0  0  0  0  0  0  0  0  0  0  0  0
    3.5826  -17.0949   10.9897 H   0  0  0  0  0  0  0  0  0  0  0  0
    3.3676  -17.4219   12.7745 H   0  0  0  0  0  0  0  0  0  0  0  0
    5.3921  -18.9238   11.1642 H   0  0  0  0  0  0  0  0  0  0  0  0
    5.3509  -18.6367   12.8976 H   0  0  0  0  0  0  0  0  0  0  0  0
    5.8809  -15.1129   11.9556 H   0  0  0  0  0  0  0  0  0  0  0  0
    5.6822  -16.0652   13.4815 H   0  0  0  0  0  0  0  0  0  0  0  0
    7.9043  -14.4726   12.8231 H   0  0  0  0  0  0  0  0  0  0  0  0
    7.9102  -15.8228   13.9789 H   0  0  0  0  0  0  0  0  0  0  0  0
    8.6476  -15.8868   11.0361 H   0  0  0  0  0  0  0  0  0  0  0  0
    9.5123  -16.6261   12.4030 H   0  0  0  0  0  0  0  0  0  0  0  0
    7.7542  -18.2782   12.7244 H   0  0  0  0  0  0  0  0  0  0  0  0
    7.9279  -18.2087   10.9528 H   0  0  0  0  0  0  0  0  0  0  0  0
   -2.7167  -21.0419   14.7728 H   0  0  0  0  0  0  0  0  0  0  0  0
   -4.0343  -21.5251   14.4695 H   0  0  0  0  0  0  0  0  0  0  0  0
   -8.6751  -24.0052   11.7698 H   0  0  0  0  0  0  0  0  0  0  0  0
   -9.9698  -21.7415   12.2897 H   0  0  0  0  0  0  0  0  0  0  0  0
   -9.4447  -21.9018   10.5802 H   0  0  0  0  0  0  0  0  0  0  0  0
   -4.7938  -20.4251   10.6053 H   0  0  0  0  0  0  0  0  0  0  0  0
   -3.3822  -19.6771   11.0751 H   0  0  0  0  0  0  0  0  0  0  0  0
  1  2  2  0
  2  3  1  0
  3  4  1  0
  4  5  1  0
  5  6  1  0
  6  7  1  0
  7  8  1  0
  8  9  1  0
  9 10  1  0
 10 11  1  0
  2 12  1  0
 12 13  2  0
 13 14  1  0
 14 15  2  0
 15 16  1  0
 16 17  1  0
 17 18  2  0
 18 19  1  0
 19 20  1  0
 20 21  2  0
 15 22  1  0
 22 23  2  0
 11  7  1  0
 23 12  1  0
 20 16  1  0
  3 24  1  0
  4 25  1  0
  4 26  1  0
  5 27  1  0
  5 28  1  0
  6 29  1  0
  6 30  1  0
  8 31  1  0
  8 32  1  0
  9 33  1  0
  9 34  1  0
 10 35  1  0
 10 36  1  0
 11 37  1  0
 11 38  1  0
 13 39  1  0
 14 40  1  0
 18 41  1  0
 19 42  1  0
 19 43  1  0
 22 44  1  0
 23 45  1  0
M  END
>  <Energy>  (535) 
733.1027454912936

>  <compound_id>  (535) 
29733

>  <target_id>  (535) 
1

>  <reference_id>  (535) 
98

>  <inspiration_ids>  (535) 
[30, 98]

>  <energy_score>  (535) 
644.2233297841588

>  <distance_score>  (535) 
13.4704343055786

>  <path>  (535) 
/opt/xchem-fragalysis-2/maxwin/BulkDock/SCRATCH/511015/C29733-P98/C29733-P98.minimised.mol

>  <scratch_subdir>  (535) 
/opt/xchem-fragalysis-2/maxwin/BulkDock/SCRATCH/511015/C29733-P98

>  <fragmenstein_runtime>  (535) 
14.073182582855225

>  <fragmenstein_outcome>  (535) 
too moved

>  <fragmenstein_mode>  (535) 
expansion

>  <fragmenstein_error>  (535) 


$$$$
C32681-P69
     RDKit          3D

 40 43  0  0  0  0  0  0  0  0999 V2000
  -12.2537  -15.8212   23.1103 C   0  0  0  0  0  0  0  0  0  0  0  0
  -11.5002  -14.5767   23.2142 C   0  0  0  0  0  0  0  0  0  0  0  0
  -10.8409  -13.2025   21.7046 C   0  0  0  0  0  0  0  0  0  0  0  0
  -10.8412  -12.0741   22.1834 O   0  0  0  0  0  0  0  0  0  0  0  0
  -10.1913  -13.4926   19.8074 N   0  0  0  0  0  0  0  0  0  0  0  0
   -9.3782  -12.2638   18.4213 C   0  0  0  0  0  0  0  0  0  0  0  0
   -8.5202  -12.1254   16.4702 C   0  0  0  0  0  0  0  0  0  0  0  0
   -8.5545  -11.0792   15.3165 N   0  0  0  0  0  0  0  0  0  0  0  0
   -8.4417  -11.0331   13.8891 C   0  0  0  0  0  0  0  0  0  0  0  0
   -8.0636   -9.9680   13.0605 C   0  0  0  0  0  0  0  0  0  0  0  0
   -7.8123  -10.1757   11.6979 C   0  0  0  0  0  0  0  0  0  0  0  0
   -7.9970  -11.4296   11.1479 C   0  0  0  0  0  0  0  0  0  0  0  0
   -8.4011  -12.4922   11.9610 C   0  0  0  0  0  0  0  0  0  0  0  0
   -8.5893  -12.2515   13.3364 C   0  0  0  0  0  0  0  0  0  0  0  0
   -9.2346  -13.2290   14.5852 S   0  0  0  0  0  0  0  0  0  0  0  0
  -12.5412  -14.5953   24.9967 N   0  0  0  0  0  0  0  0  0  0  0  0
  -12.6827  -12.9403   25.6759 C   0  0  0  0  0  0  0  0  0  0  0  0
  -13.8143  -12.9556   26.3693 N   0  0  0  0  0  0  0  0  0  0  0  0
  -13.7960  -14.2241   26.8787 C   0  0  0  0  0  0  0  0  0  0  0  0
  -14.3808  -14.5326   28.1191 C   0  0  0  0  0  0  0  0  0  0  0  0
  -13.5015  -14.3987   29.1886 C   0  0  0  0  0  0  0  0  0  0  0  0
  -12.1562  -14.1756   28.9345 C   0  0  0  0  0  0  0  0  0  0  0  0
  -11.5957  -14.3750   27.6421 C   0  0  0  0  0  0  0  0  0  0  0  0
  -12.4787  -14.6436   26.5543 C   0  0  0  0  0  0  0  0  0  0  0  0
  -13.0760  -15.9849   23.7715 H   0  0  0  0  0  0  0  0  0  0  0  0
  -12.5990  -16.0537   22.1076 H   0  0  0  0  0  0  0  0  0  0  0  0
  -11.5704  -16.4189   23.6727 H   0  0  0  0  0  0  0  0  0  0  0  0
  -11.8549  -13.5918   23.4732 H   0  0  0  0  0  0  0  0  0  0  0  0
  -10.1779  -14.4851   19.6094 H   0  0  0  0  0  0  0  0  0  0  0  0
   -8.4294  -12.1289   18.9286 H   0  0  0  0  0  0  0  0  0  0  0  0
  -10.2363  -11.5972   18.3452 H   0  0  0  0  0  0  0  0  0  0  0  0
   -7.8904   -9.0181   13.5283 H   0  0  0  0  0  0  0  0  0  0  0  0
   -7.4555   -9.3696   11.0685 H   0  0  0  0  0  0  0  0  0  0  0  0
   -7.8256  -11.5927   10.0870 H   0  0  0  0  0  0  0  0  0  0  0  0
   -8.5789  -13.4775   11.5419 H   0  0  0  0  0  0  0  0  0  0  0  0
  -12.1477  -12.1756   25.1217 H   0  0  0  0  0  0  0  0  0  0  0  0
  -15.4417  -14.3865   28.2908 H   0  0  0  0  0  0  0  0  0  0  0  0
  -13.8798  -14.3280   30.2028 H   0  0  0  0  0  0  0  0  0  0  0  0
  -11.5094  -13.8792   29.7591 H   0  0  0  0  0  0  0  0  0  0  0  0
  -10.5480  -14.1714   27.5265 H   0  0  0  0  0  0  0  0  0  0  0  0
  1  2  1  0
  2  3  1  0
  3  4  2  0
  3  5  1  0
  5  6  1  0
  6  7  1  0
  7  8  2  0
  8  9  1  0
  9 10  2  0
 10 11  1  0
 11 12  2  0
 12 13  1  0
 13 14  2  0
 14 15  1  0
  2 16  1  0
 16 17  1  0
 17 18  2  0
 18 19  1  0
 19 20  2  0
 20 21  1  0
 21 22  2  0
 22 23  1  0
 23 24  2  0
 15  7  1  0
 24 16  1  0
 14  9  1  0
 24 19  1  0
  1 25  1  0
  1 26  1  0
  1 27  1  0
  2 28  1  0
  5 29  1  0
  6 30  1  0
  6 31  1  0
 10 32  1  0
 11 33  1  0
 12 34  1  0
 13 35  1  0
 17 36  1  0
 20 37  1  0
 21 38  1  0
 22 39  1  0
 23 40  1  0
M  END
>  <Energy>  (536) 
1050.3147193542216

>  <compound_id>  (536) 
32681

>  <target_id>  (536) 
1

>  <reference_id>  (536) 
69

>  <inspiration_ids>  (536) 
[69, 52]

>  <energy_score>  (536) 
956.0252223936527

>  <distance_score>  (536) 
11.664864565514115

>  <path>  (536) 
/opt/xchem-fragalysis-2/maxwin/BulkDock/SCRATCH/511015/C32681-P69/C32681-P69.minimised.mol

>  <scratch_subdir>  (536) 
/opt/xchem-fragalysis-2/maxwin/BulkDock/SCRATCH/511015/C32681-P69

>  <fragmenstein_runtime>  (536) 
22.957539081573486

>  <fragmenstein_outcome>  (536) 
too moved

>  <fragmenstein_mode>  (536) 
expansion

>  <fragmenstein_error>  (536) 


$$$$
C32681-P52
     RDKit          3D

 40 43  0  0  0  0  0  0  0  0999 V2000
  -13.1527  -16.2893   19.5500 C   0  0  0  0  0  0  0  0  0  0  0  0
  -13.4342  -15.0768   20.0146 C   0  0  0  0  0  0  0  0  0  0  0  0
  -14.4428  -14.2508   18.0527 C   0  0  0  0  0  0  0  0  0  0  0  0
  -15.2604  -15.0286   17.5200 O   0  0  0  0  0  0  0  0  0  0  0  0
  -13.9370  -12.4526   17.0384 N   0  0  0  0  0  0  0  0  0  0  0  0
  -14.3661  -11.8358   15.3676 C   0  0  0  0  0  0  0  0  0  0  0  0
  -13.4517  -12.1360   14.0577 C   0  0  0  0  0  0  0  0  0  0  0  0
  -12.1314  -12.1284   13.9626 N   0  0  0  0  0  0  0  0  0  0  0  0
  -11.6797  -11.8927   12.6574 C   0  0  0  0  0  0  0  0  0  0  0  0
  -10.3427  -11.6790   12.2449 C   0  0  0  0  0  0  0  0  0  0  0  0
  -10.0278  -11.5165   10.8921 C   0  0  0  0  0  0  0  0  0  0  0  0
  -11.0344  -11.5752    9.9398 C   0  0  0  0  0  0  0  0  0  0  0  0
  -12.3741  -11.7303   10.3243 C   0  0  0  0  0  0  0  0  0  0  0  0
  -12.6779  -11.8621   11.6937 C   0  0  0  0  0  0  0  0  0  0  0  0
  -14.2081  -11.9971   12.4852 S   0  0  0  0  0  0  0  0  0  0  0  0
  -13.0803  -15.9248   21.8972 N   0  0  0  0  0  0  0  0  0  0  0  0
  -13.2653  -15.3327   23.4883 C   0  0  0  0  0  0  0  0  0  0  0  0
  -12.3851  -15.3202   24.4631 N   0  0  0  0  0  0  0  0  0  0  0  0
  -11.9183  -16.4570   24.1411 C   0  0  0  0  0  0  0  0  0  0  0  0
  -10.7484  -17.3697   24.5381 C   0  0  0  0  0  0  0  0  0  0  0  0
  -10.7970  -19.2019   24.3916 C   0  0  0  0  0  0  0  0  0  0  0  0
  -12.1779  -19.6512   24.2606 C   0  0  0  0  0  0  0  0  0  0  0  0
  -13.4163  -18.3032   23.9247 C   0  0  0  0  0  0  0  0  0  0  0  0
  -13.0680  -16.8931   23.3836 C   0  0  0  0  0  0  0  0  0  0  0  0
  -12.1956  -16.2942   19.1007 H   0  0  0  0  0  0  0  0  0  0  0  0
  -13.9074  -16.9916   19.9247 H   0  0  0  0  0  0  0  0  0  0  0  0
  -13.6301  -16.0830   18.6333 H   0  0  0  0  0  0  0  0  0  0  0  0
  -14.1838  -15.6188   20.7481 H   0  0  0  0  0  0  0  0  0  0  0  0
  -13.2141  -11.9820   17.5367 H   0  0  0  0  0  0  0  0  0  0  0  0
  -15.2441  -11.3225   15.0407 H   0  0  0  0  0  0  0  0  0  0  0  0
  -13.9243  -10.9343   15.5931 H   0  0  0  0  0  0  0  0  0  0  0  0
   -9.5574  -11.6592   12.9898 H   0  0  0  0  0  0  0  0  0  0  0  0
   -8.9959  -11.3609   10.5879 H   0  0  0  0  0  0  0  0  0  0  0  0
  -10.7851  -11.4654    8.8864 H   0  0  0  0  0  0  0  0  0  0  0  0
  -13.1621  -11.7421    9.5775 H   0  0  0  0  0  0  0  0  0  0  0  0
  -14.2954  -15.4635   23.9450 H   0  0  0  0  0  0  0  0  0  0  0  0
  -10.0591  -16.8059   25.1513 H   0  0  0  0  0  0  0  0  0  0  0  0
   -9.9288  -19.8336   24.5620 H   0  0  0  0  0  0  0  0  0  0  0  0
  -12.4863  -20.6801   24.3997 H   0  0  0  0  0  0  0  0  0  0  0  0
  -14.2356  -18.5100   24.6370 H   0  0  0  0  0  0  0  0  0  0  0  0
  1  2  1  0
  2  3  1  0
  3  4  2  0
  3  5  1  0
  5  6  1  0
  6  7  1  0
  7  8  2  0
  8  9  1  0
  9 10  2  0
 10 11  1  0
 11 12  2  0
 12 13  1  0
 13 14  2  0
 14 15  1  0
  2 16  1  0
 16 17  1  0
 17 18  2  0
 18 19  1  0
 19 20  2  0
 20 21  1  0
 21 22  2  0
 22 23  1  0
 23 24  2  0
 15  7  1  0
 24 16  1  0
 14  9  1  0
 24 19  1  0
  1 25  1  0
  1 26  1  0
  1 27  1  0
  2 28  1  0
  5 29  1  0
  6 30  1  0
  6 31  1  0
 10 32  1  0
 11 33  1  0
 12 34  1  0
 13 35  1  0
 17 36  1  0
 20 37  1  0
 21 38  1  0
 22 39  1  0
 23 40  1  0
M  END
>  <Energy>  (537) 
1363.5961706386561

>  <compound_id>  (537) 
32681

>  <target_id>  (537) 
1

>  <reference_id>  (537) 
52

>  <inspiration_ids>  (537) 
[69, 52]

>  <energy_score>  (537) 
1269.3066736780895

>  <distance_score>  (537) 
12.011846311779893

>  <path>  (537) 
/opt/xchem-fragalysis-2/maxwin/BulkDock/SCRATCH/511015/C32681-P52/C32681-P52.minimised.mol

>  <scratch_subdir>  (537) 
/opt/xchem-fragalysis-2/maxwin/BulkDock/SCRATCH/511015/C32681-P52

>  <fragmenstein_runtime>  (537) 
24.93142557144165

>  <fragmenstein_outcome>  (537) 
too moved

>  <fragmenstein_mode>  (537) 
expansion

>  <fragmenstein_error>  (537) 


$$$$
C32682-P69
     RDKit          3D

 35 38  0  0  0  0  0  0  0  0999 V2000
   -7.4312   -6.8802   14.6210 F   0  0  0  0  0  0  0  0  0  0  0  0
   -7.0851   -6.4025   15.7939 C   0  0  0  0  0  0  0  0  0  0  0  0
   -6.3432   -5.2596   15.7495 C   0  0  0  0  0  0  0  0  0  0  0  0
   -5.4155   -5.3651   16.6970 C   0  0  0  0  0  0  0  0  0  0  0  0
   -5.7945   -6.2436   17.7708 C   0  0  0  0  0  0  0  0  0  0  0  0
   -7.3450   -6.8036   18.2210 C   0  0  0  0  0  0  0  0  0  0  0  0
   -8.4942   -7.8632   19.3011 N   0  0  0  0  0  0  0  0  0  0  0  0
   -8.5591   -9.5954   19.2340 C   0  0  0  0  0  0  0  0  0  0  0  0
   -9.3530  -11.2963   19.9164 N   0  0  0  0  0  0  0  0  0  0  0  0
   -9.5467  -11.9225   22.1426 C   0  0  0  0  0  0  0  0  0  0  0  0
   -9.9862  -12.2787   24.4681 C   0  0  0  0  0  0  0  0  0  0  0  0
   -8.7111  -13.9631   25.4360 N   0  0  0  0  0  0  0  0  0  0  0  0
   -8.5094  -13.5898   27.1220 C   0  0  0  0  0  0  0  0  0  0  0  0
   -7.5985  -14.2942   27.7049 N   0  0  0  0  0  0  0  0  0  0  0  0
   -7.5581  -15.4602   27.0318 C   0  0  0  0  0  0  0  0  0  0  0  0
   -6.8961  -16.6078   27.5405 C   0  0  0  0  0  0  0  0  0  0  0  0
   -7.0838  -17.8516   26.9718 C   0  0  0  0  0  0  0  0  0  0  0  0
   -7.9931  -17.9545   25.9460 C   0  0  0  0  0  0  0  0  0  0  0  0
   -8.6960  -16.8257   25.4585 C   0  0  0  0  0  0  0  0  0  0  0  0
   -8.3836  -15.4961   25.8708 C   0  0  0  0  0  0  0  0  0  0  0  0
   -7.1307   -8.9954   17.3318 S   0  0  0  0  0  0  0  0  0  0  0  0
   -7.1497   -7.3094   16.9790 C   0  0  0  0  0  0  0  0  0  0  0  0
   -6.2430   -4.6568   14.8607 H   0  0  0  0  0  0  0  0  0  0  0  0
   -4.4635   -4.8517   16.6839 H   0  0  0  0  0  0  0  0  0  0  0  0
   -4.9548   -6.3693   18.4917 H   0  0  0  0  0  0  0  0  0  0  0  0
   -8.6329  -11.9756   19.6009 H   0  0  0  0  0  0  0  0  0  0  0  0
  -10.6847  -12.0171   22.1886 H   0  0  0  0  0  0  0  0  0  0  0  0
   -9.3815  -12.9032   21.7103 H   0  0  0  0  0  0  0  0  0  0  0  0
  -11.0658  -12.3574   24.7411 H   0  0  0  0  0  0  0  0  0  0  0  0
   -9.8179  -11.4759   25.2902 H   0  0  0  0  0  0  0  0  0  0  0  0
   -9.0393  -12.6901   27.4150 H   0  0  0  0  0  0  0  0  0  0  0  0
   -6.2694  -16.4955   28.4215 H   0  0  0  0  0  0  0  0  0  0  0  0
   -6.5601  -18.7179   27.3592 H   0  0  0  0  0  0  0  0  0  0  0  0
   -8.1753  -18.9348   25.5098 H   0  0  0  0  0  0  0  0  0  0  0  0
   -9.4996  -17.0411   24.7856 H   0  0  0  0  0  0  0  0  0  0  0  0
  1  2  1  0
  2  3  2  0
  3  4  1  0
  4  5  2  0
  5  6  1  0
  6  7  1  0
  7  8  2  0
  8  9  1  0
  9 10  1  0
 10 11  1  0
 11 12  1  0
 12 13  1  0
 13 14  2  0
 14 15  1  0
 15 16  2  0
 16 17  1  0
 17 18  2  0
 18 19  1  0
 19 20  2  0
  8 21  1  0
 21 22  1  0
 22  2  1  0
 22  6  2  0
 20 12  1  0
 20 15  1  0
  3 23  1  0
  4 24  1  0
  5 25  1  0
  9 26  1  0
 10 27  1  0
 10 28  1  0
 11 29  1  0
 11 30  1  0
 13 31  1  0
 16 32  1  0
 17 33  1  0
 18 34  1  0
 19 35  1  0
M  END
>  <Energy>  (538) 
1793.1667279672124

>  <compound_id>  (538) 
32682

>  <target_id>  (538) 
1

>  <reference_id>  (538) 
69

>  <inspiration_ids>  (538) 
[69, 52]

>  <energy_score>  (538) 
1729.6017597133464

>  <distance_score>  (538) 
11.099691698079644

>  <path>  (538) 
/opt/xchem-fragalysis-2/maxwin/BulkDock/SCRATCH/511015/C32682-P69/C32682-P69.minimised.mol

>  <scratch_subdir>  (538) 
/opt/xchem-fragalysis-2/maxwin/BulkDock/SCRATCH/511015/C32682-P69

>  <fragmenstein_runtime>  (538) 
23.1713547706604

>  <fragmenstein_outcome>  (538) 
too moved

>  <fragmenstein_mode>  (538) 
expansion

>  <fragmenstein_error>  (538) 


$$$$
C32682-P52
     RDKit          3D

 35 38  0  0  0  0  0  0  0  0999 V2000
   -3.1378   -2.9570   10.8818 F   0  0  0  0  0  0  0  0  0  0  0  0
   -4.4136   -3.2395   10.6077 C   0  0  0  0  0  0  0  0  0  0  0  0
   -5.9225   -2.2504    9.0460 C   0  0  0  0  0  0  0  0  0  0  0  0
   -7.7146   -3.0774    7.8540 C   0  0  0  0  0  0  0  0  0  0  0  0
   -7.9737   -4.9870    8.9983 C   0  0  0  0  0  0  0  0  0  0  0  0
   -6.7794   -5.7105   10.5380 C   0  0  0  0  0  0  0  0  0  0  0  0
   -7.1731   -7.0413   11.8554 N   0  0  0  0  0  0  0  0  0  0  0  0
   -6.5684   -7.6594   13.2778 C   0  0  0  0  0  0  0  0  0  0  0  0
   -6.6450   -8.7546   14.7971 N   0  0  0  0  0  0  0  0  0  0  0  0
   -7.1712  -10.3453   15.9809 C   0  0  0  0  0  0  0  0  0  0  0  0
   -7.8432  -11.2584   17.8613 C   0  0  0  0  0  0  0  0  0  0  0  0
   -7.2016  -11.6040   19.7990 N   0  0  0  0  0  0  0  0  0  0  0  0
   -8.2696  -11.4125   21.3606 C   0  0  0  0  0  0  0  0  0  0  0  0
   -8.7069  -10.2802   21.8648 N   0  0  0  0  0  0  0  0  0  0  0  0
   -7.6789  -10.4174   22.5259 C   0  0  0  0  0  0  0  0  0  0  0  0
   -7.6677  -10.0444   23.9786 C   0  0  0  0  0  0  0  0  0  0  0  0
   -7.3101  -10.9518   24.7932 C   0  0  0  0  0  0  0  0  0  0  0  0
   -6.6277  -11.7136   24.0050 C   0  0  0  0  0  0  0  0  0  0  0  0
   -6.2126  -12.0678   22.6736 C   0  0  0  0  0  0  0  0  0  0  0  0
   -6.9074  -11.4274   21.6379 C   0  0  0  0  0  0  0  0  0  0  0  0
   -4.8724   -6.3748   13.0281 S   0  0  0  0  0  0  0  0  0  0  0  0
   -5.1919   -4.9996   11.4373 C   0  0  0  0  0  0  0  0  0  0  0  0
   -5.9944   -1.1264    9.0855 H   0  0  0  0  0  0  0  0  0  0  0  0
   -8.4113   -2.5311    7.2105 H   0  0  0  0  0  0  0  0  0  0  0  0
   -8.4689   -5.8662    8.4843 H   0  0  0  0  0  0  0  0  0  0  0  0
   -5.7592   -8.5010   15.2423 H   0  0  0  0  0  0  0  0  0  0  0  0
   -6.4132  -10.9642   15.5476 H   0  0  0  0  0  0  0  0  0  0  0  0
   -8.0109   -9.7001   15.8776 H   0  0  0  0  0  0  0  0  0  0  0  0
   -8.6445  -10.5769   18.0673 H   0  0  0  0  0  0  0  0  0  0  0  0
   -8.1128  -12.3039   17.6901 H   0  0  0  0  0  0  0  0  0  0  0  0
   -9.1283  -12.0822   21.3114 H   0  0  0  0  0  0  0  0  0  0  0  0
   -8.1638   -9.2880   24.5434 H   0  0  0  0  0  0  0  0  0  0  0  0
   -7.3724  -11.3554   25.7773 H   0  0  0  0  0  0  0  0  0  0  0  0
   -7.0118  -12.6067   24.6805 H   0  0  0  0  0  0  0  0  0  0  0  0
   -5.7607  -13.0277   22.5922 H   0  0  0  0  0  0  0  0  0  0  0  0
  1  2  1  0
  2  3  2  0
  3  4  1  0
  4  5  2  0
  5  6  1  0
  6  7  1  0
  7  8  2  0
  8  9  1  0
  9 10  1  0
 10 11  1  0
 11 12  1  0
 12 13  1  0
 13 14  2  0
 14 15  1  0
 15 16  2  0
 16 17  1  0
 17 18  2  0
 18 19  1  0
 19 20  2  0
  8 21  1  0
 21 22  1  0
 22  2  1  0
 22  6  2  0
 20 12  1  0
 20 15  1  0
  3 23  1  0
  4 24  1  0
  5 25  1  0
  9 26  1  0
 10 27  1  0
 10 28  1  0
 11 29  1  0
 11 30  1  0
 13 31  1  0
 16 32  1  0
 17 33  1  0
 18 34  1  0
 19 35  1  0
M  END
>  <Energy>  (539) 
3137.0123151255457

>  <compound_id>  (539) 
32682

>  <target_id>  (539) 
1

>  <reference_id>  (539) 
52

>  <inspiration_ids>  (539) 
[69, 52]

>  <energy_score>  (539) 
3073.447346871676

>  <distance_score>  (539) 
11.839855821307363

>  <path>  (539) 
/opt/xchem-fragalysis-2/maxwin/BulkDock/SCRATCH/511015/C32682-P52/C32682-P52.minimised.mol

>  <scratch_subdir>  (539) 
/opt/xchem-fragalysis-2/maxwin/BulkDock/SCRATCH/511015/C32682-P52

>  <fragmenstein_runtime>  (539) 
21.890812873840332

>  <fragmenstein_outcome>  (539) 
too moved

>  <fragmenstein_mode>  (539) 
expansion

>  <fragmenstein_error>  (539) 


$$$$
C32683-P69
     RDKit          3D

 37 40  0  0  0  0  0  0  0  0999 V2000
  -10.5390  -14.4578   23.1890 O   0  0  0  0  0  0  0  0  0  0  0  0
  -11.2936  -14.7478   22.5970 C   0  0  0  0  0  0  0  0  0  0  0  0
  -11.3485  -13.2439   20.9833 C   0  0  0  0  0  0  0  0  0  0  0  0
  -10.8596  -12.1233   18.9825 C   0  0  0  0  0  0  0  0  0  0  0  0
  -10.6349  -10.1086   18.2434 C   0  0  0  0  0  0  0  0  0  0  0  0
  -10.8912  -10.5740   16.3410 N   0  0  0  0  0  0  0  0  0  0  0  0
  -10.6068   -9.3148   14.7175 C   0  0  0  0  0  0  0  0  0  0  0  0
  -12.0854   -9.0157   13.9076 C   0  0  0  0  0  0  0  0  0  0  0  0
  -12.9500   -7.9434   13.4162 C   0  0  0  0  0  0  0  0  0  0  0  0
  -12.6890   -6.6417   13.7685 C   0  0  0  0  0  0  0  0  0  0  0  0
  -11.7876   -6.4723   14.8019 C   0  0  0  0  0  0  0  0  0  0  0  0
  -11.2704   -7.7235   15.5336 C   0  0  0  0  0  0  0  0  0  0  0  0
  -10.5652   -7.4373   18.0006 S   0  0  0  0  0  0  0  0  0  0  0  0
  -11.8278  -16.3997   23.2613 N   0  0  0  0  0  0  0  0  0  0  0  0
  -11.0104  -17.6328   24.7359 N   0  0  0  0  0  0  0  0  0  0  0  0
  -11.5330  -19.5003   24.6179 C   0  0  0  0  0  0  0  0  0  0  0  0
  -10.9217  -20.6278   24.6276 N   0  0  0  0  0  0  0  0  0  0  0  0
   -9.8796  -20.2383   23.9768 C   0  0  0  0  0  0  0  0  0  0  0  0
   -8.8749  -21.2007   23.6577 C   0  0  0  0  0  0  0  0  0  0  0  0
   -7.7543  -21.3377   24.4730 C   0  0  0  0  0  0  0  0  0  0  0  0
   -7.6067  -20.4828   25.5277 C   0  0  0  0  0  0  0  0  0  0  0  0
   -8.4937  -19.4059   25.6080 C   0  0  0  0  0  0  0  0  0  0  0  0
   -9.6685  -18.9175   24.5032 C   0  0  0  0  0  0  0  0  0  0  0  0
  -11.3786  -12.5065   21.8142 H   0  0  0  0  0  0  0  0  0  0  0  0
  -10.2402  -13.0857   21.3556 H   0  0  0  0  0  0  0  0  0  0  0  0
   -9.9262  -12.5231   18.5686 H   0  0  0  0  0  0  0  0  0  0  0  0
  -11.7041  -11.9008   18.3350 H   0  0  0  0  0  0  0  0  0  0  0  0
  -12.8296   -9.7554   14.3070 H   0  0  0  0  0  0  0  0  0  0  0  0
  -13.8585   -8.2039   12.8763 H   0  0  0  0  0  0  0  0  0  0  0  0
  -13.2818   -5.8148   13.3989 H   0  0  0  0  0  0  0  0  0  0  0  0
  -11.7026   -5.5118   15.3125 H   0  0  0  0  0  0  0  0  0  0  0  0
  -12.6514  -16.6903   22.7492 H   0  0  0  0  0  0  0  0  0  0  0  0
  -12.5771  -19.5922   24.1859 H   0  0  0  0  0  0  0  0  0  0  0  0
   -9.1524  -22.0425   23.0265 H   0  0  0  0  0  0  0  0  0  0  0  0
   -7.0829  -22.1799   24.3349 H   0  0  0  0  0  0  0  0  0  0  0  0
   -6.8328  -20.6320   26.2707 H   0  0  0  0  0  0  0  0  0  0  0  0
   -8.3968  -18.8153   26.5330 H   0  0  0  0  0  0  0  0  0  0  0  0
  1  2  2  0
  2  3  1  0
  3  4  1  0
  4  5  1  0
  5  6  2  0
  6  7  1  0
  7  8  2  0
  8  9  1  0
  9 10  2  0
 10 11  1  0
 11 12  2  0
 12 13  1  0
  2 14  1  0
 14 15  1  0
 15 16  1  0
 16 17  2  0
 17 18  1  0
 18 19  2  0
 19 20  1  0
 20 21  2  0
 21 22  1  0
 22 23  2  0
 13  5  1  0
 23 15  1  0
 12  7  1  0
 23 18  1  0
  3 24  1  0
  3 25  1  0
  4 26  1  0
  4 27  1  0
  8 28  1  0
  9 29  1  0
 10 30  1  0
 11 31  1  0
 14 32  1  0
 16 33  1  0
 19 34  1  0
 20 35  1  0
 21 36  1  0
 22 37  1  0
M  END
>  <Energy>  (540) 
2380.3283441745057

>  <compound_id>  (540) 
32683

>  <target_id>  (540) 
1

>  <reference_id>  (540) 
69

>  <inspiration_ids>  (540) 
[69, 52]

>  <energy_score>  (540) 
2318.8555025155592

>  <distance_score>  (540) 
10.506073780653171

>  <path>  (540) 
/opt/xchem-fragalysis-2/maxwin/BulkDock/SCRATCH/511015/C32683-P69/C32683-P69.minimised.mol

>  <scratch_subdir>  (540) 
/opt/xchem-fragalysis-2/maxwin/BulkDock/SCRATCH/511015/C32683-P69

>  <fragmenstein_runtime>  (540) 
16.448432445526123

>  <fragmenstein_outcome>  (540) 
too moved

>  <fragmenstein_mode>  (540) 
expansion

>  <fragmenstein_error>  (540) 


$$$$
C32683-P52
     RDKit          3D

 37 40  0  0  0  0  0  0  0  0999 V2000
   -8.0107  -13.7315   16.4361 O   0  0  0  0  0  0  0  0  0  0  0  0
   -8.2592  -12.9350   17.2856 C   0  0  0  0  0  0  0  0  0  0  0  0
   -7.9305  -10.9407   16.5015 C   0  0  0  0  0  0  0  0  0  0  0  0
   -7.7814   -9.1715   15.1748 C   0  0  0  0  0  0  0  0  0  0  0  0
   -7.9409   -7.6418   13.5993 C   0  0  0  0  0  0  0  0  0  0  0  0
   -7.6273   -6.0478   13.3129 N   0  0  0  0  0  0  0  0  0  0  0  0
   -6.9920   -4.9331   11.9294 C   0  0  0  0  0  0  0  0  0  0  0  0
   -7.2518   -3.0772   11.6428 C   0  0  0  0  0  0  0  0  0  0  0  0
   -6.9601   -1.8968    9.9227 C   0  0  0  0  0  0  0  0  0  0  0  0
   -5.9079   -2.7346    8.2715 C   0  0  0  0  0  0  0  0  0  0  0  0
   -5.4841   -4.7654    8.8681 C   0  0  0  0  0  0  0  0  0  0  0  0
   -6.4184   -5.7346   10.4141 C   0  0  0  0  0  0  0  0  0  0  0  0
   -6.9839   -7.6266   11.4802 S   0  0  0  0  0  0  0  0  0  0  0  0
   -8.6420  -13.8041   19.0191 N   0  0  0  0  0  0  0  0  0  0  0  0
   -8.5364  -15.7790   19.6721 N   0  0  0  0  0  0  0  0  0  0  0  0
   -6.9423  -16.6426   19.3624 C   0  0  0  0  0  0  0  0  0  0  0  0
   -6.8058  -17.8705   18.9593 N   0  0  0  0  0  0  0  0  0  0  0  0
   -6.9601  -18.2293   20.2261 C   0  0  0  0  0  0  0  0  0  0  0  0
   -6.5818  -19.4922   20.7796 C   0  0  0  0  0  0  0  0  0  0  0  0
   -6.4635  -19.6941   22.1223 C   0  0  0  0  0  0  0  0  0  0  0  0
   -6.5479  -18.5487   22.8325 C   0  0  0  0  0  0  0  0  0  0  0  0
   -7.0395  -17.2963   22.2538 C   0  0  0  0  0  0  0  0  0  0  0  0
   -7.7276  -16.9154   20.9688 C   0  0  0  0  0  0  0  0  0  0  0  0
   -6.8272  -11.0804   16.5046 H   0  0  0  0  0  0  0  0  0  0  0  0
   -8.0148  -11.4946   15.6203 H   0  0  0  0  0  0  0  0  0  0  0  0
   -8.1177   -9.8239   14.3449 H   0  0  0  0  0  0  0  0  0  0  0  0
   -8.1669   -8.4682   15.9069 H   0  0  0  0  0  0  0  0  0  0  0  0
   -7.7744   -2.6259   12.5091 H   0  0  0  0  0  0  0  0  0  0  0  0
   -7.5226   -0.9563    9.8720 H   0  0  0  0  0  0  0  0  0  0  0  0
   -5.8619   -2.2786    7.2551 H   0  0  0  0  0  0  0  0  0  0  0  0
   -5.0918   -5.5311    8.0673 H   0  0  0  0  0  0  0  0  0  0  0  0
   -8.9263  -13.1052   19.6504 H   0  0  0  0  0  0  0  0  0  0  0  0
   -6.2220  -16.2245   20.0478 H   0  0  0  0  0  0  0  0  0  0  0  0
   -6.2950  -20.2761   20.0842 H   0  0  0  0  0  0  0  0  0  0  0  0
   -6.1304  -20.6325   22.5422 H   0  0  0  0  0  0  0  0  0  0  0  0
   -6.2100  -18.5398   23.8680 H   0  0  0  0  0  0  0  0  0  0  0  0
   -6.7502  -16.5734   23.0231 H   0  0  0  0  0  0  0  0  0  0  0  0
  1  2  2  0
  2  3  1  0
  3  4  1  0
  4  5  1  0
  5  6  2  0
  6  7  1  0
  7  8  2  0
  8  9  1  0
  9 10  2  0
 10 11  1  0
 11 12  2  0
 12 13  1  0
  2 14  1  0
 14 15  1  0
 15 16  1  0
 16 17  2  0
 17 18  1  0
 18 19  2  0
 19 20  1  0
 20 21  2  0
 21 22  1  0
 22 23  2  0
 13  5  1  0
 23 15  1  0
 12  7  1  0
 23 18  1  0
  3 24  1  0
  3 25  1  0
  4 26  1  0
  4 27  1  0
  8 28  1  0
  9 29  1  0
 10 30  1  0
 11 31  1  0
 14 32  1  0
 16 33  1  0
 19 34  1  0
 20 35  1  0
 21 36  1  0
 22 37  1  0
M  END
>  <Energy>  (541) 
2426.3987071838878

>  <compound_id>  (541) 
32683

>  <target_id>  (541) 
1

>  <reference_id>  (541) 
52

>  <inspiration_ids>  (541) 
[69, 52]

>  <energy_score>  (541) 
2364.925865524974

>  <distance_score>  (541) 
10.357164726897981

>  <path>  (541) 
/opt/xchem-fragalysis-2/maxwin/BulkDock/SCRATCH/511015/C32683-P52/C32683-P52.minimised.mol

>  <scratch_subdir>  (541) 
/opt/xchem-fragalysis-2/maxwin/BulkDock/SCRATCH/511015/C32683-P52

>  <fragmenstein_runtime>  (541) 
20.77043628692627

>  <fragmenstein_outcome>  (541) 
too moved

>  <fragmenstein_mode>  (541) 
expansion

>  <fragmenstein_error>  (541) 


$$$$
C32684-P69
     RDKit          3D

 36 39  0  0  0  0  0  0  0  0999 V2000
  -11.1628  -10.6552   10.7357 C   0  0  0  0  0  0  0  0  0  0  0  0
   -9.6982  -10.3537   10.8725 C   0  0  0  0  0  0  0  0  0  0  0  0
   -8.9486  -10.0671    9.7021 C   0  0  0  0  0  0  0  0  0  0  0  0
   -7.5647   -9.8568    9.7307 C   0  0  0  0  0  0  0  0  0  0  0  0
   -6.8449  -10.1285   10.8809 C   0  0  0  0  0  0  0  0  0  0  0  0
   -7.6159  -10.5680   11.9531 C   0  0  0  0  0  0  0  0  0  0  0  0
   -7.3548  -11.8463   13.0104 S   0  0  0  0  0  0  0  0  0  0  0  0
   -8.5414  -11.3359   14.2287 C   0  0  0  0  0  0  0  0  0  0  0  0
   -9.2514  -11.8702   15.5303 N   0  0  0  0  0  0  0  0  0  0  0  0
   -8.5788  -12.2191   17.3191 C   0  0  0  0  0  0  0  0  0  0  0  0
   -7.4752  -12.1780   17.7473 O   0  0  0  0  0  0  0  0  0  0  0  0
  -10.0085  -12.7778   18.1971 N   0  0  0  0  0  0  0  0  0  0  0  0
  -10.1515  -13.5378   19.7772 N   0  0  0  0  0  0  0  0  0  0  0  0
  -10.0770  -14.9093   19.3589 C   0  0  0  0  0  0  0  0  0  0  0  0
  -11.3980  -15.4944   19.8404 N   0  0  0  0  0  0  0  0  0  0  0  0
  -12.2046  -15.1919   20.9620 C   0  0  0  0  0  0  0  0  0  0  0  0
  -13.3558  -16.0428   21.7906 C   0  0  0  0  0  0  0  0  0  0  0  0
  -13.7516  -15.9876   23.2092 C   0  0  0  0  0  0  0  0  0  0  0  0
  -12.7343  -15.3199   23.8920 C   0  0  0  0  0  0  0  0  0  0  0  0
  -11.4920  -14.5268   22.9710 C   0  0  0  0  0  0  0  0  0  0  0  0
  -11.3119  -13.7412   21.3510 C   0  0  0  0  0  0  0  0  0  0  0  0
   -9.3693  -10.5983   13.4490 N   0  0  0  0  0  0  0  0  0  0  0  0
   -8.9749  -10.4591   12.0850 C   0  0  0  0  0  0  0  0  0  0  0  0
  -11.7547  -10.1133   11.4728 H   0  0  0  0  0  0  0  0  0  0  0  0
  -11.3279  -11.7294   10.8656 H   0  0  0  0  0  0  0  0  0  0  0  0
  -11.5424  -10.3788    9.7467 H   0  0  0  0  0  0  0  0  0  0  0  0
   -9.4815   -9.9678    8.7592 H   0  0  0  0  0  0  0  0  0  0  0  0
   -7.0170   -9.5770    8.8372 H   0  0  0  0  0  0  0  0  0  0  0  0
   -5.7652  -10.2208   10.8627 H   0  0  0  0  0  0  0  0  0  0  0  0
  -10.2493  -11.9091   15.4944 H   0  0  0  0  0  0  0  0  0  0  0  0
  -10.8306  -12.6270   17.6310 H   0  0  0  0  0  0  0  0  0  0  0  0
   -9.1451  -15.4016   19.1014 H   0  0  0  0  0  0  0  0  0  0  0  0
  -12.3612  -16.2826   22.1288 H   0  0  0  0  0  0  0  0  0  0  0  0
  -14.6896  -16.3421   23.6001 H   0  0  0  0  0  0  0  0  0  0  0  0
  -12.8405  -15.0507   24.9380 H   0  0  0  0  0  0  0  0  0  0  0  0
  -10.9900  -15.4408   23.1713 H   0  0  0  0  0  0  0  0  0  0  0  0
  1  2  1  0
  2  3  2  0
  3  4  1  0
  4  5  2  0
  5  6  1  0
  6  7  1  0
  7  8  1  0
  8  9  1  0
  9 10  1  0
 10 11  2  0
 10 12  1  0
 12 13  1  0
 13 14  1  0
 14 15  2  0
 15 16  1  0
 16 17  2  0
 17 18  1  0
 18 19  2  0
 19 20  1  0
 20 21  2  0
  8 22  2  0
 22 23  1  0
 23  2  1  0
 23  6  2  0
 21 13  1  0
 21 16  1  0
  1 24  1  0
  1 25  1  0
  1 26  1  0
  3 27  1  0
  4 28  1  0
  5 29  1  0
  9 30  1  0
 12 31  1  0
 14 32  1  0
 17 33  1  0
 18 34  1  0
 19 35  1  0
 20 36  1  0
M  END
>  <Energy>  (542) 
732.44831117636988

>  <compound_id>  (542) 
32684

>  <target_id>  (542) 
1

>  <reference_id>  (542) 
69

>  <inspiration_ids>  (542) 
[69, 52]

>  <energy_score>  (542) 
719.0862883510542

>  <distance_score>  (542) 
12.314605519110517

>  <path>  (542) 
/opt/xchem-fragalysis-2/maxwin/BulkDock/SCRATCH/511015/C32684-P69/C32684-P69.minimised.mol

>  <scratch_subdir>  (542) 
/opt/xchem-fragalysis-2/maxwin/BulkDock/SCRATCH/511015/C32684-P69

>  <fragmenstein_runtime>  (542) 
21.507193088531494

>  <fragmenstein_outcome>  (542) 
too moved

>  <fragmenstein_mode>  (542) 
expansion

>  <fragmenstein_error>  (542) 


$$$$
C32684-P52
     RDKit          3D

 36 39  0  0  0  0  0  0  0  0999 V2000
   -6.9319   -2.8702   20.0855 C   0  0  0  0  0  0  0  0  0  0  0  0
   -7.6679   -3.4333   18.8996 C   0  0  0  0  0  0  0  0  0  0  0  0
   -7.5339   -2.7721   17.6476 C   0  0  0  0  0  0  0  0  0  0  0  0
   -8.1562   -3.2494   16.5043 C   0  0  0  0  0  0  0  0  0  0  0  0
   -8.9356   -4.3922   16.5810 C   0  0  0  0  0  0  0  0  0  0  0  0
   -9.0419   -5.0676   17.8198 C   0  0  0  0  0  0  0  0  0  0  0  0
   -9.8475   -6.5479   18.0599 S   0  0  0  0  0  0  0  0  0  0  0  0
   -9.2974   -6.5871   20.0317 C   0  0  0  0  0  0  0  0  0  0  0  0
   -9.9054   -7.9184   21.1972 N   0  0  0  0  0  0  0  0  0  0  0  0
  -11.6006   -8.4124   21.6568 C   0  0  0  0  0  0  0  0  0  0  0  0
  -12.6439   -7.9133   21.3573 O   0  0  0  0  0  0  0  0  0  0  0  0
  -11.4165   -9.8784   22.5652 N   0  0  0  0  0  0  0  0  0  0  0  0
  -12.3660  -10.6862   23.1941 N   0  0  0  0  0  0  0  0  0  0  0  0
  -13.6947  -10.7206   22.8725 C   0  0  0  0  0  0  0  0  0  0  0  0
  -14.3957  -11.4627   23.7136 N   0  0  0  0  0  0  0  0  0  0  0  0
  -13.5356  -11.8104   24.7208 C   0  0  0  0  0  0  0  0  0  0  0  0
  -13.7765  -12.6240   25.8564 C   0  0  0  0  0  0  0  0  0  0  0  0
  -12.7890  -12.7802   26.8328 C   0  0  0  0  0  0  0  0  0  0  0  0
  -11.5872  -12.0984   26.6929 C   0  0  0  0  0  0  0  0  0  0  0  0
  -11.3166  -11.3110   25.5457 C   0  0  0  0  0  0  0  0  0  0  0  0
  -12.2825  -11.2132   24.5131 C   0  0  0  0  0  0  0  0  0  0  0  0
   -8.5798   -5.4617   20.1819 N   0  0  0  0  0  0  0  0  0  0  0  0
   -8.4365   -4.6325   18.9928 C   0  0  0  0  0  0  0  0  0  0  0  0
   -5.8534   -2.9985   19.9497 H   0  0  0  0  0  0  0  0  0  0  0  0
   -7.2227   -3.3706   21.0142 H   0  0  0  0  0  0  0  0  0  0  0  0
   -7.1549   -1.8042   20.1983 H   0  0  0  0  0  0  0  0  0  0  0  0
   -6.9123   -1.8815   17.5836 H   0  0  0  0  0  0  0  0  0  0  0  0
   -8.0286   -2.7660   15.5425 H   0  0  0  0  0  0  0  0  0  0  0  0
   -9.4167   -4.7917   15.6916 H   0  0  0  0  0  0  0  0  0  0  0  0
   -9.2312   -8.4849   21.6728 H   0  0  0  0  0  0  0  0  0  0  0  0
  -10.4428  -10.1217   22.6064 H   0  0  0  0  0  0  0  0  0  0  0  0
  -14.0905  -10.2152   21.9998 H   0  0  0  0  0  0  0  0  0  0  0  0
  -14.7501  -13.0906   25.9731 H   0  0  0  0  0  0  0  0  0  0  0  0
  -12.9852  -13.3875   27.7129 H   0  0  0  0  0  0  0  0  0  0  0  0
  -10.8289  -12.1829   27.4693 H   0  0  0  0  0  0  0  0  0  0  0  0
  -10.3417  -10.8540   25.4557 H   0  0  0  0  0  0  0  0  0  0  0  0
  1  2  1  0
  2  3  2  0
  3  4  1  0
  4  5  2  0
  5  6  1  0
  6  7  1  0
  7  8  1  0
  8  9  1  0
  9 10  1  0
 10 11  2  0
 10 12  1  0
 12 13  1  0
 13 14  1  0
 14 15  2  0
 15 16  1  0
 16 17  2  0
 17 18  1  0
 18 19  2  0
 19 20  1  0
 20 21  2  0
  8 22  2  0
 22 23  1  0
 23  2  1  0
 23  6  2  0
 21 13  1  0
 21 16  1  0
  1 24  1  0
  1 25  1  0
  1 26  1  0
  3 27  1  0
  4 28  1  0
  5 29  1  0
  9 30  1  0
 12 31  1  0
 14 32  1  0
 17 33  1  0
 18 34  1  0
 19 35  1  0
 20 36  1  0
M  END
>  <Energy>  (543) 
164.40895489888743

>  <compound_id>  (543) 
32684

>  <target_id>  (543) 
1

>  <reference_id>  (543) 
52

>  <inspiration_ids>  (543) 
[69, 52]

>  <energy_score>  (543) 
151.04693207355922

>  <distance_score>  (543) 
12.913957507192553

>  <path>  (543) 
/opt/xchem-fragalysis-2/maxwin/BulkDock/SCRATCH/511015/C32684-P52/C32684-P52.minimised.mol

>  <scratch_subdir>  (543) 
/opt/xchem-fragalysis-2/maxwin/BulkDock/SCRATCH/511015/C32684-P52

>  <fragmenstein_runtime>  (543) 
22.925771236419678

>  <fragmenstein_outcome>  (543) 
too moved

>  <fragmenstein_mode>  (543) 
expansion

>  <fragmenstein_error>  (543) 


$$$$
C32685-P69
     RDKit          3D

 42 45  0  0  0  0  0  0  0  0999 V2000
   -7.2371   -5.0449   16.8975 C   0  0  0  0  0  0  0  0  0  0  0  0
   -7.2747   -5.9366   15.6874 C   0  0  0  0  0  0  0  0  0  0  0  0
   -7.2882   -5.2828   14.3317 C   0  0  0  0  0  0  0  0  0  0  0  0
   -6.8090   -6.0025   13.0813 C   0  0  0  0  0  0  0  0  0  0  0  0
   -6.7033   -7.5068   13.1316 C   0  0  0  0  0  0  0  0  0  0  0  0
   -7.6729   -8.0453   14.3563 C   0  0  0  0  0  0  0  0  0  0  0  0
   -8.0508  -10.0676   14.7381 S   0  0  0  0  0  0  0  0  0  0  0  0
   -6.8801  -10.5185   16.7546 C   0  0  0  0  0  0  0  0  0  0  0  0
   -7.4973  -11.7547   18.1663 N   0  0  0  0  0  0  0  0  0  0  0  0
   -9.2580  -12.1035   18.8901 C   0  0  0  0  0  0  0  0  0  0  0  0
  -10.2769  -11.6245   18.4543 O   0  0  0  0  0  0  0  0  0  0  0  0
   -9.2634  -13.1437   20.4884 N   0  0  0  0  0  0  0  0  0  0  0  0
  -10.7929  -13.5863   21.9091 C   0  0  0  0  0  0  0  0  0  0  0  0
  -11.1719  -15.2833   23.3385 C   0  0  0  0  0  0  0  0  0  0  0  0
  -10.4370  -16.7415   24.6769 N   0  0  0  0  0  0  0  0  0  0  0  0
   -9.6128  -15.9652   26.1074 C   0  0  0  0  0  0  0  0  0  0  0  0
  -10.4555  -15.8325   27.1188 N   0  0  0  0  0  0  0  0  0  0  0  0
  -10.4969  -17.1659   27.4231 C   0  0  0  0  0  0  0  0  0  0  0  0
  -10.9475  -18.2029   28.9731 C   0  0  0  0  0  0  0  0  0  0  0  0
  -10.2932  -20.0972   29.3121 C   0  0  0  0  0  0  0  0  0  0  0  0
   -9.2478  -20.2628   27.7001 C   0  0  0  0  0  0  0  0  0  0  0  0
   -8.6991  -18.9536   26.6743 C   0  0  0  0  0  0  0  0  0  0  0  0
   -9.6871  -17.4791   26.2445 C   0  0  0  0  0  0  0  0  0  0  0  0
   -6.8948   -8.8428   16.8872 N   0  0  0  0  0  0  0  0  0  0  0  0
   -7.1149   -7.4021   15.7472 C   0  0  0  0  0  0  0  0  0  0  0  0
   -8.1640   -4.4678   16.9660 H   0  0  0  0  0  0  0  0  0  0  0  0
   -6.3887   -4.3568   16.8301 H   0  0  0  0  0  0  0  0  0  0  0  0
   -7.1215   -5.6302   17.8146 H   0  0  0  0  0  0  0  0  0  0  0  0
   -7.3301   -4.1935   14.3494 H   0  0  0  0  0  0  0  0  0  0  0  0
   -6.1921   -5.6473   12.2628 H   0  0  0  0  0  0  0  0  0  0  0  0
   -6.2003   -8.1427   12.4392 H   0  0  0  0  0  0  0  0  0  0  0  0
   -6.8016  -12.1938   18.7421 H   0  0  0  0  0  0  0  0  0  0  0  0
   -8.3817  -13.5100   20.6253 H   0  0  0  0  0  0  0  0  0  0  0  0
  -11.0420  -12.5709   22.2724 H   0  0  0  0  0  0  0  0  0  0  0  0
  -11.5292  -13.5255   21.2075 H   0  0  0  0  0  0  0  0  0  0  0  0
  -11.7991  -15.9875   22.7832 H   0  0  0  0  0  0  0  0  0  0  0  0
  -12.0732  -15.1370   23.9822 H   0  0  0  0  0  0  0  0  0  0  0  0
   -8.6664  -15.4640   25.8496 H   0  0  0  0  0  0  0  0  0  0  0  0
  -11.9456  -17.8169   29.2243 H   0  0  0  0  0  0  0  0  0  0  0  0
  -10.9147  -20.8929   29.7199 H   0  0  0  0  0  0  0  0  0  0  0  0
   -9.0564  -21.2912   27.3473 H   0  0  0  0  0  0  0  0  0  0  0  0
   -8.1835  -19.3865   25.7906 H   0  0  0  0  0  0  0  0  0  0  0  0
  1  2  1  0
  2  3  2  0
  3  4  1  0
  4  5  2  0
  5  6  1  0
  6  7  1  0
  7  8  1  0
  8  9  1  0
  9 10  1  0
 10 11  2  0
 10 12  1  0
 12 13  1  0
 13 14  1  0
 14 15  1  0
 15 16  1  0
 16 17  2  0
 17 18  1  0
 18 19  2  0
 19 20  1  0
 20 21  2  0
 21 22  1  0
 22 23  2  0
  8 24  2  0
 24 25  1  0
 25  2  1  0
 25  6  2  0
 23 15  1  0
 23 18  1  0
  1 26  1  0
  1 27  1  0
  1 28  1  0
  3 29  1  0
  4 30  1  0
  5 31  1  0
  9 32  1  0
 12 33  1  0
 13 34  1  0
 13 35  1  0
 14 36  1  0
 14 37  1  0
 16 38  1  0
 19 39  1  0
 20 40  1  0
 21 41  1  0
 22 42  1  0
M  END
>  <Energy>  (544) 
1826.7109635008476

>  <compound_id>  (544) 
32685

>  <target_id>  (544) 
1

>  <reference_id>  (544) 
69

>  <inspiration_ids>  (544) 
[69, 52]

>  <energy_score>  (544) 
1797.639787066552

>  <distance_score>  (544) 
9.212771728843848

>  <path>  (544) 
/opt/xchem-fragalysis-2/maxwin/BulkDock/SCRATCH/511015/C32685-P69/C32685-P69.minimised.mol

>  <scratch_subdir>  (544) 
/opt/xchem-fragalysis-2/maxwin/BulkDock/SCRATCH/511015/C32685-P69

>  <fragmenstein_runtime>  (544) 
25.88754177093506

>  <fragmenstein_outcome>  (544) 
too moved

>  <fragmenstein_mode>  (544) 
expansion

>  <fragmenstein_error>  (544) 


$$$$
C32685-P52
     RDKit          3D

 42 45  0  0  0  0  0  0  0  0999 V2000
   -8.1222   -5.5372    5.2084 C   0  0  0  0  0  0  0  0  0  0  0  0
   -6.7230   -4.8923    5.4855 C   0  0  0  0  0  0  0  0  0  0  0  0
   -6.7788   -3.5262    5.0851 C   0  0  0  0  0  0  0  0  0  0  0  0
   -5.8528   -2.6305    5.5402 C   0  0  0  0  0  0  0  0  0  0  0  0
   -4.7701   -3.1086    6.2608 C   0  0  0  0  0  0  0  0  0  0  0  0
   -4.6351   -4.5051    6.6972 C   0  0  0  0  0  0  0  0  0  0  0  0
   -4.8287   -6.0491    8.0549 S   0  0  0  0  0  0  0  0  0  0  0  0
   -6.2896   -6.1193    9.7380 C   0  0  0  0  0  0  0  0  0  0  0  0
   -6.9115   -6.7771   11.3223 N   0  0  0  0  0  0  0  0  0  0  0  0
   -7.4013   -5.8924   12.9182 C   0  0  0  0  0  0  0  0  0  0  0  0
   -7.2610   -4.7214   13.0855 O   0  0  0  0  0  0  0  0  0  0  0  0
   -8.0173   -7.0182   14.2602 N   0  0  0  0  0  0  0  0  0  0  0  0
   -8.4320   -6.6818   16.1877 C   0  0  0  0  0  0  0  0  0  0  0  0
   -9.7007   -7.2725   17.7971 C   0  0  0  0  0  0  0  0  0  0  0  0
  -10.3883   -8.4378   19.2455 N   0  0  0  0  0  0  0  0  0  0  0  0
  -10.1755   -8.4075   21.2072 C   0  0  0  0  0  0  0  0  0  0  0  0
  -10.9942   -7.6913   21.9500 N   0  0  0  0  0  0  0  0  0  0  0  0
  -11.8256   -8.6616   21.8195 C   0  0  0  0  0  0  0  0  0  0  0  0
  -11.5399  -10.1576   22.6285 C   0  0  0  0  0  0  0  0  0  0  0  0
  -11.7581  -11.2935   22.0485 C   0  0  0  0  0  0  0  0  0  0  0  0
  -12.7613  -10.8872   21.2075 C   0  0  0  0  0  0  0  0  0  0  0  0
  -13.0991   -9.2896   20.6715 C   0  0  0  0  0  0  0  0  0  0  0  0
  -12.1431   -8.5504   20.1049 C   0  0  0  0  0  0  0  0  0  0  0  0
   -5.8889   -6.6056    8.1261 N   0  0  0  0  0  0  0  0  0  0  0  0
   -5.5353   -5.4818    6.5562 C   0  0  0  0  0  0  0  0  0  0  0  0
   -8.8422   -4.8023    4.8287 H   0  0  0  0  0  0  0  0  0  0  0  0
   -8.5699   -5.9189    6.1290 H   0  0  0  0  0  0  0  0  0  0  0  0
   -8.0748   -6.3154    4.4493 H   0  0  0  0  0  0  0  0  0  0  0  0
   -7.6222   -3.1450    4.5117 H   0  0  0  0  0  0  0  0  0  0  0  0
   -5.9302   -1.5813    5.2937 H   0  0  0  0  0  0  0  0  0  0  0  0
   -3.9800   -2.3884    6.4431 H   0  0  0  0  0  0  0  0  0  0  0  0
   -7.0421   -7.7723   11.4348 H   0  0  0  0  0  0  0  0  0  0  0  0
   -8.1375   -7.9295   13.8888 H   0  0  0  0  0  0  0  0  0  0  0  0
   -7.5639   -7.2706   16.4385 H   0  0  0  0  0  0  0  0  0  0  0  0
   -8.3186   -5.5982   16.2697 H   0  0  0  0  0  0  0  0  0  0  0  0
  -10.6767   -7.0963   17.3917 H   0  0  0  0  0  0  0  0  0  0  0  0
   -9.4604   -6.4721   18.5151 H   0  0  0  0  0  0  0  0  0  0  0  0
   -9.5710   -9.2015   21.6855 H   0  0  0  0  0  0  0  0  0  0  0  0
  -11.8880  -10.2086   23.6938 H   0  0  0  0  0  0  0  0  0  0  0  0
  -10.9300  -11.5550   21.4180 H   0  0  0  0  0  0  0  0  0  0  0  0
  -13.8138  -11.2829   21.3158 H   0  0  0  0  0  0  0  0  0  0  0  0
  -14.1522   -9.0193   20.4519 H   0  0  0  0  0  0  0  0  0  0  0  0
  1  2  1  0
  2  3  2  0
  3  4  1  0
  4  5  2  0
  5  6  1  0
  6  7  1  0
  7  8  1  0
  8  9  1  0
  9 10  1  0
 10 11  2  0
 10 12  1  0
 12 13  1  0
 13 14  1  0
 14 15  1  0
 15 16  1  0
 16 17  2  0
 17 18  1  0
 18 19  2  0
 19 20  1  0
 20 21  2  0
 21 22  1  0
 22 23  2  0
  8 24  2  0
 24 25  1  0
 25  2  1  0
 25  6  2  0
 23 15  1  0
 23 18  1  0
  1 26  1  0
  1 27  1  0
  1 28  1  0
  3 29  1  0
  4 30  1  0
  5 31  1  0
  9 32  1  0
 12 33  1  0
 13 34  1  0
 13 35  1  0
 14 36  1  0
 14 37  1  0
 16 38  1  0
 19 39  1  0
 20 40  1  0
 21 41  1  0
 22 42  1  0
M  END
>  <Energy>  (545) 
1694.6574696743996

>  <compound_id>  (545) 
32685

>  <target_id>  (545) 
1

>  <reference_id>  (545) 
52

>  <inspiration_ids>  (545) 
[69, 52]

>  <energy_score>  (545) 
1665.5862932401396

>  <distance_score>  (545) 
12.753179006647807

>  <path>  (545) 
/opt/xchem-fragalysis-2/maxwin/BulkDock/SCRATCH/511015/C32685-P52/C32685-P52.minimised.mol

>  <scratch_subdir>  (545) 
/opt/xchem-fragalysis-2/maxwin/BulkDock/SCRATCH/511015/C32685-P52

>  <fragmenstein_runtime>  (545) 
48.7291579246521

>  <fragmenstein_outcome>  (545) 
too moved

>  <fragmenstein_mode>  (545) 
expansion

>  <fragmenstein_error>  (545) 


$$$$
C32686-P69
     RDKit          3D

 43 46  0  0  0  0  0  0  0  0999 V2000
   -6.5431   -9.9845    9.1801 C   0  0  0  0  0  0  0  0  0  0  0  0
   -7.3743  -11.0532    9.6712 O   0  0  0  0  0  0  0  0  0  0  0  0
   -7.7117  -11.0071   11.0011 C   0  0  0  0  0  0  0  0  0  0  0  0
   -7.5312   -9.8607   11.7303 C   0  0  0  0  0  0  0  0  0  0  0  0
   -7.9764   -9.8013   13.0311 C   0  0  0  0  0  0  0  0  0  0  0  0
   -8.4432  -10.9249   13.6994 C   0  0  0  0  0  0  0  0  0  0  0  0
   -8.5710  -10.9172   15.0665 N   0  0  0  0  0  0  0  0  0  0  0  0
   -8.5676  -12.0090   15.9287 C   0  0  0  0  0  0  0  0  0  0  0  0
   -7.6912  -12.1090   17.5875 N   0  0  0  0  0  0  0  0  0  0  0  0
   -8.1987  -12.4657   18.9749 C   0  0  0  0  0  0  0  0  0  0  0  0
   -9.2773  -12.8521   19.3282 O   0  0  0  0  0  0  0  0  0  0  0  0
   -6.7595  -12.0229   20.0664 N   0  0  0  0  0  0  0  0  0  0  0  0
   -6.6402  -11.9088   22.1065 C   0  0  0  0  0  0  0  0  0  0  0  0
   -5.8768  -12.4208   23.8516 C   0  0  0  0  0  0  0  0  0  0  0  0
   -6.6568  -12.2469   25.5687 N   0  0  0  0  0  0  0  0  0  0  0  0
   -6.5356  -11.1157   26.1417 C   0  0  0  0  0  0  0  0  0  0  0  0
   -5.6829  -11.3616   27.2458 N   0  0  0  0  0  0  0  0  0  0  0  0
   -5.9861  -12.5280   27.8280 C   0  0  0  0  0  0  0  0  0  0  0  0
   -5.4891  -13.1339   29.0183 C   0  0  0  0  0  0  0  0  0  0  0  0
   -6.2629  -14.1240   29.5586 C   0  0  0  0  0  0  0  0  0  0  0  0
   -7.5105  -14.2695   28.9495 C   0  0  0  0  0  0  0  0  0  0  0  0
   -7.9561  -13.7645   27.6514 C   0  0  0  0  0  0  0  0  0  0  0  0
   -6.9737  -13.0224   26.9423 C   0  0  0  0  0  0  0  0  0  0  0  0
   -9.0479  -13.3495   14.2703 S   0  0  0  0  0  0  0  0  0  0  0  0
   -8.5303  -12.1213   13.0462 C   0  0  0  0  0  0  0  0  0  0  0  0
   -8.2426  -12.1632   11.6422 C   0  0  0  0  0  0  0  0  0  0  0  0
   -6.1638  -10.2917    8.2016 H   0  0  0  0  0  0  0  0  0  0  0  0
   -5.6625   -9.8338    9.8146 H   0  0  0  0  0  0  0  0  0  0  0  0
   -7.1199   -9.0655    9.0598 H   0  0  0  0  0  0  0  0  0  0  0  0
   -7.0446   -8.9901   11.3238 H   0  0  0  0  0  0  0  0  0  0  0  0
   -7.8563   -8.9158   13.6261 H   0  0  0  0  0  0  0  0  0  0  0  0
   -6.7751  -11.7406   17.6647 H   0  0  0  0  0  0  0  0  0  0  0  0
   -5.9610  -11.8107   19.5063 H   0  0  0  0  0  0  0  0  0  0  0  0
   -6.6544  -10.9244   22.4561 H   0  0  0  0  0  0  0  0  0  0  0  0
   -7.6653  -11.9220   22.5108 H   0  0  0  0  0  0  0  0  0  0  0  0
   -5.0760  -11.7764   24.1283 H   0  0  0  0  0  0  0  0  0  0  0  0
   -5.6628  -13.4811   23.8885 H   0  0  0  0  0  0  0  0  0  0  0  0
   -7.0221  -10.2347   25.7882 H   0  0  0  0  0  0  0  0  0  0  0  0
   -4.6232  -12.7289   29.5273 H   0  0  0  0  0  0  0  0  0  0  0  0
   -6.0455  -14.5497   30.5316 H   0  0  0  0  0  0  0  0  0  0  0  0
   -8.2575  -14.5667   29.6400 H   0  0  0  0  0  0  0  0  0  0  0  0
   -8.9616  -13.9223   27.3356 H   0  0  0  0  0  0  0  0  0  0  0  0
   -8.3588  -13.0902   11.0898 H   0  0  0  0  0  0  0  0  0  0  0  0
  1  2  1  0
  2  3  1  0
  3  4  2  0
  4  5  1  0
  5  6  2  0
  6  7  1  0
  7  8  2  0
  8  9  1  0
  9 10  1  0
 10 11  2  0
 10 12  1  0
 12 13  1  0
 13 14  1  0
 14 15  1  0
 15 16  1  0
 16 17  2  0
 17 18  1  0
 18 19  2  0
 19 20  1  0
 20 21  2  0
 21 22  1  0
 22 23  2  0
  8 24  1  0
 24 25  1  0
 25 26  2  0
 26  3  1  0
 25  6  1  0
 23 15  1  0
 23 18  1  0
  1 27  1  0
  1 28  1  0
  1 29  1  0
  4 30  1  0
  5 31  1  0
  9 32  1  0
 12 33  1  0
 13 34  1  0
 13 35  1  0
 14 36  1  0
 14 37  1  0
 16 38  1  0
 19 39  1  0
 20 40  1  0
 21 41  1  0
 22 42  1  0
 26 43  1  0
M  END
>  <Energy>  (546) 
582.12339828975325

>  <compound_id>  (546) 
32686

>  <target_id>  (546) 
1

>  <reference_id>  (546) 
69

>  <inspiration_ids>  (546) 
[69, 52]

>  <energy_score>  (546) 
588.4705148646798

>  <distance_score>  (546) 
12.19799269488549

>  <path>  (546) 
/opt/xchem-fragalysis-2/maxwin/BulkDock/SCRATCH/511015/C32686-P69/C32686-P69.minimised.mol

>  <scratch_subdir>  (546) 
/opt/xchem-fragalysis-2/maxwin/BulkDock/SCRATCH/511015/C32686-P69

>  <fragmenstein_runtime>  (546) 
29.85662841796875

>  <fragmenstein_outcome>  (546) 
too moved

>  <fragmenstein_mode>  (546) 
expansion

>  <fragmenstein_error>  (546) 


$$$$
C32686-P52
     RDKit          3D

 43 46  0  0  0  0  0  0  0  0999 V2000
   -4.7009   -6.4038    8.1456 C   0  0  0  0  0  0  0  0  0  0  0  0
   -2.9959   -7.0330    9.0212 O   0  0  0  0  0  0  0  0  0  0  0  0
   -2.6370   -7.6487   10.7284 C   0  0  0  0  0  0  0  0  0  0  0  0
   -2.6916   -9.0311   11.0115 C   0  0  0  0  0  0  0  0  0  0  0  0
   -2.7706   -9.6425   12.4787 C   0  0  0  0  0  0  0  0  0  0  0  0
   -2.8269   -9.0170   13.8580 C   0  0  0  0  0  0  0  0  0  0  0  0
   -3.0516   -9.6553   15.3843 N   0  0  0  0  0  0  0  0  0  0  0  0
   -3.0931   -8.8854   16.5348 C   0  0  0  0  0  0  0  0  0  0  0  0
   -3.7132   -9.0089   18.1785 N   0  0  0  0  0  0  0  0  0  0  0  0
   -4.5138  -10.3652   19.0328 C   0  0  0  0  0  0  0  0  0  0  0  0
   -4.6277  -11.4194   18.5561 O   0  0  0  0  0  0  0  0  0  0  0  0
   -5.3007   -9.9371   20.6495 N   0  0  0  0  0  0  0  0  0  0  0  0
   -6.6038  -11.0252   21.8595 C   0  0  0  0  0  0  0  0  0  0  0  0
   -6.5242  -11.4011   23.7084 C   0  0  0  0  0  0  0  0  0  0  0  0
   -7.2638  -12.4938   25.1235 N   0  0  0  0  0  0  0  0  0  0  0  0
   -7.7566  -13.9105   24.7209 C   0  0  0  0  0  0  0  0  0  0  0  0
   -8.6852  -14.5381   25.3664 N   0  0  0  0  0  0  0  0  0  0  0  0
   -8.7935  -13.8992   26.5376 C   0  0  0  0  0  0  0  0  0  0  0  0
   -9.1567  -14.7359   27.6235 C   0  0  0  0  0  0  0  0  0  0  0  0
   -8.1961  -14.7916   28.6131 C   0  0  0  0  0  0  0  0  0  0  0  0
   -7.4495  -13.7155   28.9011 C   0  0  0  0  0  0  0  0  0  0  0  0
   -7.3662  -12.7416   27.9118 C   0  0  0  0  0  0  0  0  0  0  0  0
   -7.9066  -12.7221   26.5743 C   0  0  0  0  0  0  0  0  0  0  0  0
   -2.9099   -7.0490   15.6364 S   0  0  0  0  0  0  0  0  0  0  0  0
   -2.7777   -7.6296   13.7069 C   0  0  0  0  0  0  0  0  0  0  0  0
   -2.6817   -6.9132   12.1650 C   0  0  0  0  0  0  0  0  0  0  0  0
   -5.5482   -6.9508    8.6144 H   0  0  0  0  0  0  0  0  0  0  0  0
   -4.7604   -5.3580    8.0194 H   0  0  0  0  0  0  0  0  0  0  0  0
   -4.7416   -6.6257    7.0623 H   0  0  0  0  0  0  0  0  0  0  0  0
   -2.7061   -9.7703   10.2112 H   0  0  0  0  0  0  0  0  0  0  0  0
   -2.8305  -10.7360   12.4954 H   0  0  0  0  0  0  0  0  0  0  0  0
   -3.6504   -8.2174   18.8010 H   0  0  0  0  0  0  0  0  0  0  0  0
   -5.0029   -8.9940   20.9321 H   0  0  0  0  0  0  0  0  0  0  0  0
   -6.8021  -11.9141   21.3174 H   0  0  0  0  0  0  0  0  0  0  0  0
   -7.6167  -10.5879   21.9356 H   0  0  0  0  0  0  0  0  0  0  0  0
   -5.4351  -11.2577   23.7593 H   0  0  0  0  0  0  0  0  0  0  0  0
   -6.2367  -12.3429   23.2061 H   0  0  0  0  0  0  0  0  0  0  0  0
   -7.3687  -14.1733   23.7681 H   0  0  0  0  0  0  0  0  0  0  0  0
   -9.7432  -15.6247   27.4077 H   0  0  0  0  0  0  0  0  0  0  0  0
   -7.9368  -15.6785   29.1503 H   0  0  0  0  0  0  0  0  0  0  0  0
   -6.8180  -13.6675   29.7814 H   0  0  0  0  0  0  0  0  0  0  0  0
   -6.7185  -11.9652   28.2563 H   0  0  0  0  0  0  0  0  0  0  0  0
   -2.7076   -5.8211   12.2045 H   0  0  0  0  0  0  0  0  0  0  0  0
  1  2  1  0
  2  3  1  0
  3  4  2  0
  4  5  1  0
  5  6  2  0
  6  7  1  0
  7  8  2  0
  8  9  1  0
  9 10  1  0
 10 11  2  0
 10 12  1  0
 12 13  1  0
 13 14  1  0
 14 15  1  0
 15 16  1  0
 16 17  2  0
 17 18  1  0
 18 19  2  0
 19 20  1  0
 20 21  2  0
 21 22  1  0
 22 23  2  0
  8 24  1  0
 24 25  1  0
 25 26  2  0
 26  3  1  0
 25  6  1  0
 23 15  1  0
 23 18  1  0
  1 27  1  0
  1 28  1  0
  1 29  1  0
  4 30  1  0
  5 31  1  0
  9 32  1  0
 12 33  1  0
 13 34  1  0
 13 35  1  0
 14 36  1  0
 14 37  1  0
 16 38  1  0
 19 39  1  0
 20 40  1  0
 21 41  1  0
 22 42  1  0
 26 43  1  0
M  END
>  <Energy>  (547) 
889.8387271482851

>  <compound_id>  (547) 
32686

>  <target_id>  (547) 
1

>  <reference_id>  (547) 
52

>  <inspiration_ids>  (547) 
[69, 52]

>  <energy_score>  (547) 
896.1858437232179

>  <distance_score>  (547) 
10.822853332743753

>  <path>  (547) 
/opt/xchem-fragalysis-2/maxwin/BulkDock/SCRATCH/511015/C32686-P52/C32686-P52.minimised.mol

>  <scratch_subdir>  (547) 
/opt/xchem-fragalysis-2/maxwin/BulkDock/SCRATCH/511015/C32686-P52

>  <fragmenstein_runtime>  (547) 
24.417848825454712

>  <fragmenstein_outcome>  (547) 
too moved

>  <fragmenstein_mode>  (547) 
expansion

>  <fragmenstein_error>  (547) 


$$$$
C32688-P69
     RDKit          3D

 47 51  0  0  0  0  0  0  0  0999 V2000
  -10.9802  -11.8418   18.7088 O   0  0  0  0  0  0  0  0  0  0  0  0
  -10.1199  -12.5825   19.0422 C   0  0  0  0  0  0  0  0  0  0  0  0
  -10.6677  -13.3756   21.2254 C   0  0  0  0  0  0  0  0  0  0  0  0
  -11.1220  -14.9418   23.0129 C   0  0  0  0  0  0  0  0  0  0  0  0
  -10.9328  -16.4793   24.6396 N   0  0  0  0  0  0  0  0  0  0  0  0
   -9.4096  -16.2711   25.6226 C   0  0  0  0  0  0  0  0  0  0  0  0
   -8.5442  -16.7499   26.5462 N   0  0  0  0  0  0  0  0  0  0  0  0
   -9.1737  -17.7545   27.0669 C   0  0  0  0  0  0  0  0  0  0  0  0
   -9.0248  -19.1785   28.1575 C   0  0  0  0  0  0  0  0  0  0  0  0
  -10.2888  -20.2376   29.2963 C   0  0  0  0  0  0  0  0  0  0  0  0
  -11.9110  -19.3453   29.0655 C   0  0  0  0  0  0  0  0  0  0  0  0
  -11.3792  -17.6990   28.2455 C   0  0  0  0  0  0  0  0  0  0  0  0
  -10.4494  -16.9914   26.6278 C   0  0  0  0  0  0  0  0  0  0  0  0
   -8.7619  -12.5525   17.6279 N   0  0  0  0  0  0  0  0  0  0  0  0
   -7.5328  -11.4709   17.7891 C   0  0  0  0  0  0  0  0  0  0  0  0
   -6.6328  -10.3070   16.5254 C   0  0  0  0  0  0  0  0  0  0  0  0
   -7.8039  -10.2513   15.0090 C   0  0  0  0  0  0  0  0  0  0  0  0
   -8.7460  -11.6124   15.6944 C   0  0  0  0  0  0  0  0  0  0  0  0
  -10.1065  -10.1212   15.0010 C   0  0  0  0  0  0  0  0  0  0  0  0
  -10.0504   -8.7490   14.6206 N   0  0  0  0  0  0  0  0  0  0  0  0
  -11.3628   -7.5002   14.6971 C   0  0  0  0  0  0  0  0  0  0  0  0
  -11.2353   -6.0421   14.6927 C   0  0  0  0  0  0  0  0  0  0  0  0
  -12.3391   -5.2424   14.4069 C   0  0  0  0  0  0  0  0  0  0  0  0
  -13.5373   -5.8437   14.0487 C   0  0  0  0  0  0  0  0  0  0  0  0
  -13.6576   -7.2406   14.0033 C   0  0  0  0  0  0  0  0  0  0  0  0
  -12.5438   -8.0206   14.3494 C   0  0  0  0  0  0  0  0  0  0  0  0
  -12.3077   -9.6294   14.5899 S   0  0  0  0  0  0  0  0  0  0  0  0
  -10.3389  -13.8382   19.8736 H   0  0  0  0  0  0  0  0  0  0  0  0
   -9.7392  -12.8901   21.6227 H   0  0  0  0  0  0  0  0  0  0  0  0
  -12.0088  -14.6737   23.5906 H   0  0  0  0  0  0  0  0  0  0  0  0
  -11.7555  -15.7320   22.5237 H   0  0  0  0  0  0  0  0  0  0  0  0
   -9.7806  -17.2053   25.0230 H   0  0  0  0  0  0  0  0  0  0  0  0
   -8.0264  -19.5116   27.8104 H   0  0  0  0  0  0  0  0  0  0  0  0
  -10.3734  -21.3137   29.3199 H   0  0  0  0  0  0  0  0  0  0  0  0
  -12.8174  -19.7515   29.4480 H   0  0  0  0  0  0  0  0  0  0  0  0
  -12.0659  -17.1007   28.9179 H   0  0  0  0  0  0  0  0  0  0  0  0
   -6.7456  -12.1797   18.1003 H   0  0  0  0  0  0  0  0  0  0  0  0
   -7.5336  -11.1186   18.8470 H   0  0  0  0  0  0  0  0  0  0  0  0
   -6.7138   -9.2858   16.9492 H   0  0  0  0  0  0  0  0  0  0  0  0
   -5.5897  -10.5199   16.4377 H   0  0  0  0  0  0  0  0  0  0  0  0
   -8.0849   -9.2605   14.7411 H   0  0  0  0  0  0  0  0  0  0  0  0
   -7.5111  -10.5329   13.9810 H   0  0  0  0  0  0  0  0  0  0  0  0
   -9.1399  -12.3344   14.9498 H   0  0  0  0  0  0  0  0  0  0  0  0
  -10.2645   -5.5795   14.8538 H   0  0  0  0  0  0  0  0  0  0  0  0
  -12.2457   -4.1603   14.4325 H   0  0  0  0  0  0  0  0  0  0  0  0
  -14.4042   -5.2280   13.8205 H   0  0  0  0  0  0  0  0  0  0  0  0
  -14.6070   -7.7096   13.7621 H   0  0  0  0  0  0  0  0  0  0  0  0
  1  2  2  0
  2  3  1  0
  3  4  1  0
  4  5  1  0
  5  6  1  0
  6  7  2  0
  7  8  1  0
  8  9  2  0
  9 10  1  0
 10 11  2  0
 11 12  1  0
 12 13  2  0
  2 14  1  0
 14 15  1  0
 15 16  1  0
 16 17  1  0
 17 18  1  0
 18 19  1  0
 19 20  2  0
 20 21  1  0
 21 22  2  0
 22 23  1  0
 23 24  2  0
 24 25  1  0
 25 26  2  0
 26 27  1  0
 13  5  1  0
 18 14  1  0
 27 19  1  0
 13  8  1  0
 26 21  1  0
  3 28  1  0
  3 29  1  0
  4 30  1  0
  4 31  1  0
  6 32  1  0
  9 33  1  0
 10 34  1  0
 11 35  1  0
 12 36  1  0
 15 37  1  0
 15 38  1  0
 16 39  1  0
 16 40  1  0
 17 41  1  0
 17 42  1  0
 18 43  1  0
 22 44  1  0
 23 45  1  0
 24 46  1  0
 25 47  1  0
M  END
>  <Energy>  (548) 
3019.0493726804179

>  <compound_id>  (548) 
32688

>  <target_id>  (548) 
1

>  <reference_id>  (548) 
69

>  <inspiration_ids>  (548) 
[69, 52]

>  <energy_score>  (548) 
2930.5378059690074

>  <distance_score>  (548) 
9.663205366338753

>  <path>  (548) 
/opt/xchem-fragalysis-2/maxwin/BulkDock/SCRATCH/511015/C32688-P69/C32688-P69.minimised.mol

>  <scratch_subdir>  (548) 
/opt/xchem-fragalysis-2/maxwin/BulkDock/SCRATCH/511015/C32688-P69

>  <fragmenstein_runtime>  (548) 
53.60694622993469

>  <fragmenstein_outcome>  (548) 
too moved

>  <fragmenstein_mode>  (548) 
expansion

>  <fragmenstein_error>  (548) 


$$$$
C32688-P52
     RDKit          3D

 47 51  0  0  0  0  0  0  0  0999 V2000
   -9.3082  -13.2119   18.8402 O   0  0  0  0  0  0  0  0  0  0  0  0
   -8.7056  -13.7024   17.9238 C   0  0  0  0  0  0  0  0  0  0  0  0
   -8.5135  -15.7769   17.9867 C   0  0  0  0  0  0  0  0  0  0  0  0
   -7.0293  -16.9748   18.8486 C   0  0  0  0  0  0  0  0  0  0  0  0
   -6.7351  -18.4508   19.4644 N   0  0  0  0  0  0  0  0  0  0  0  0
   -5.8885  -19.3338   18.8237 C   0  0  0  0  0  0  0  0  0  0  0  0
   -5.9379  -20.5505   19.3099 N   0  0  0  0  0  0  0  0  0  0  0  0
   -6.4231  -20.3765   20.5620 C   0  0  0  0  0  0  0  0  0  0  0  0
   -6.4721  -21.3355   21.5966 C   0  0  0  0  0  0  0  0  0  0  0  0
   -6.6612  -20.9121   22.9001 C   0  0  0  0  0  0  0  0  0  0  0  0
   -6.8042  -19.5537   23.1316 C   0  0  0  0  0  0  0  0  0  0  0  0
   -6.8941  -18.5899   22.0867 C   0  0  0  0  0  0  0  0  0  0  0  0
   -6.7280  -19.0197   20.7670 C   0  0  0  0  0  0  0  0  0  0  0  0
   -7.8961  -12.9705   16.6569 N   0  0  0  0  0  0  0  0  0  0  0  0
   -6.4380  -12.7065   16.9770 C   0  0  0  0  0  0  0  0  0  0  0  0
   -5.5056  -11.4996   17.0683 C   0  0  0  0  0  0  0  0  0  0  0  0
   -6.2632  -10.7685   16.0723 C   0  0  0  0  0  0  0  0  0  0  0  0
   -7.7421  -11.1601   16.1380 C   0  0  0  0  0  0  0  0  0  0  0  0
   -7.7493  -10.3015   14.3202 C   0  0  0  0  0  0  0  0  0  0  0  0
   -8.6180  -10.0719   13.2161 N   0  0  0  0  0  0  0  0  0  0  0  0
   -7.8574   -9.4329   12.0122 C   0  0  0  0  0  0  0  0  0  0  0  0
   -8.1930   -8.8344   10.8283 C   0  0  0  0  0  0  0  0  0  0  0  0
   -7.0465   -8.3635    9.6317 C   0  0  0  0  0  0  0  0  0  0  0  0
   -5.9936   -9.0926    9.3083 C   0  0  0  0  0  0  0  0  0  0  0  0
   -5.6120   -9.7415   10.4074 C   0  0  0  0  0  0  0  0  0  0  0  0
   -6.4195   -9.7447   11.7105 C   0  0  0  0  0  0  0  0  0  0  0  0
   -6.2684  -10.8884   12.8003 S   0  0  0  0  0  0  0  0  0  0  0  0
   -9.3065  -15.7808   18.7324 H   0  0  0  0  0  0  0  0  0  0  0  0
   -8.6931  -16.2871   17.0449 H   0  0  0  0  0  0  0  0  0  0  0  0
   -6.8292  -16.5013   19.8270 H   0  0  0  0  0  0  0  0  0  0  0  0
   -6.0895  -17.0460   18.2709 H   0  0  0  0  0  0  0  0  0  0  0  0
   -5.2777  -19.0397   17.9841 H   0  0  0  0  0  0  0  0  0  0  0  0
   -6.2490  -22.3721   21.3704 H   0  0  0  0  0  0  0  0  0  0  0  0
   -6.6192  -21.6224   23.7194 H   0  0  0  0  0  0  0  0  0  0  0  0
   -6.8112  -19.2465   24.1645 H   0  0  0  0  0  0  0  0  0  0  0  0
   -7.0402  -17.5401   22.2798 H   0  0  0  0  0  0  0  0  0  0  0  0
   -5.9481  -12.8392   16.0687 H   0  0  0  0  0  0  0  0  0  0  0  0
   -6.0494  -13.7366   16.6936 H   0  0  0  0  0  0  0  0  0  0  0  0
   -5.1584  -11.3346   18.1117 H   0  0  0  0  0  0  0  0  0  0  0  0
   -4.4466  -11.4951   16.7488 H   0  0  0  0  0  0  0  0  0  0  0  0
   -5.5015  -10.3457   15.4543 H   0  0  0  0  0  0  0  0  0  0  0  0
   -6.5212   -9.7337   16.0201 H   0  0  0  0  0  0  0  0  0  0  0  0
   -8.2200  -10.6557   16.9533 H   0  0  0  0  0  0  0  0  0  0  0  0
   -9.0265   -9.5238   10.4806 H   0  0  0  0  0  0  0  0  0  0  0  0
   -6.7994   -7.2870    9.5681 H   0  0  0  0  0  0  0  0  0  0  0  0
   -5.6845   -9.3950    8.3301 H   0  0  0  0  0  0  0  0  0  0  0  0
   -4.8302  -10.4518   10.2190 H   0  0  0  0  0  0  0  0  0  0  0  0
  1  2  2  0
  2  3  1  0
  3  4  1  0
  4  5  1  0
  5  6  1  0
  6  7  2  0
  7  8  1  0
  8  9  2  0
  9 10  1  0
 10 11  2  0
 11 12  1  0
 12 13  2  0
  2 14  1  0
 14 15  1  0
 15 16  1  0
 16 17  1  0
 17 18  1  0
 18 19  1  0
 19 20  2  0
 20 21  1  0
 21 22  2  0
 22 23  1  0
 23 24  2  0
 24 25  1  0
 25 26  2  0
 26 27  1  0
 13  5  1  0
 18 14  1  0
 27 19  1  0
 13  8  1  0
 26 21  1  0
  3 28  1  0
  3 29  1  0
  4 30  1  0
  4 31  1  0
  6 32  1  0
  9 33  1  0
 10 34  1  0
 11 35  1  0
 12 36  1  0
 15 37  1  0
 15 38  1  0
 16 39  1  0
 16 40  1  0
 17 41  1  0
 17 42  1  0
 18 43  1  0
 22 44  1  0
 23 45  1  0
 24 46  1  0
 25 47  1  0
M  END
>  <Energy>  (549) 
828.07112509179035

>  <compound_id>  (549) 
32688

>  <target_id>  (549) 
1

>  <reference_id>  (549) 
52

>  <inspiration_ids>  (549) 
[69, 52]

>  <energy_score>  (549) 
739.5595583804572

>  <distance_score>  (549) 
11.450287450976068

>  <path>  (549) 
/opt/xchem-fragalysis-2/maxwin/BulkDock/SCRATCH/511015/C32688-P52/C32688-P52.minimised.mol

>  <scratch_subdir>  (549) 
/opt/xchem-fragalysis-2/maxwin/BulkDock/SCRATCH/511015/C32688-P52

>  <fragmenstein_runtime>  (549) 
41.732486724853516

>  <fragmenstein_outcome>  (549) 
too moved

>  <fragmenstein_mode>  (549) 
expansion

>  <fragmenstein_error>  (549) 


$$$$
C32689-P69
     RDKit          3D

 50 54  0  0  0  0  0  0  0  0999 V2000
  -12.1050  -10.7558   23.4720 O   0  0  0  0  0  0  0  0  0  0  0  0
  -12.7791   -9.8161   23.8132 C   0  0  0  0  0  0  0  0  0  0  0  0
  -13.2585   -9.9192   25.2709 C   0  0  0  0  0  0  0  0  0  0  0  0
  -13.7857  -11.3981   25.5027 C   0  0  0  0  0  0  0  0  0  0  0  0
  -13.3692  -12.2409   26.6133 N   0  0  0  0  0  0  0  0  0  0  0  0
  -12.4009  -12.0445   27.5533 C   0  0  0  0  0  0  0  0  0  0  0  0
  -12.4719  -12.9261   28.5311 N   0  0  0  0  0  0  0  0  0  0  0  0
  -13.5100  -13.7543   28.1920 C   0  0  0  0  0  0  0  0  0  0  0  0
  -14.1007  -14.8031   28.8979 C   0  0  0  0  0  0  0  0  0  0  0  0
  -15.1752  -15.4894   28.3025 C   0  0  0  0  0  0  0  0  0  0  0  0
  -15.6062  -15.1987   27.0184 C   0  0  0  0  0  0  0  0  0  0  0  0
  -15.0357  -14.1463   26.3116 C   0  0  0  0  0  0  0  0  0  0  0  0
  -14.0233  -13.4150   26.9468 C   0  0  0  0  0  0  0  0  0  0  0  0
  -13.2774   -8.6798   23.0456 N   0  0  0  0  0  0  0  0  0  0  0  0
  -12.2539   -7.4970   23.1072 C   0  0  0  0  0  0  0  0  0  0  0  0
  -11.2962   -6.8980   21.9858 C   0  0  0  0  0  0  0  0  0  0  0  0
  -12.1100   -6.2328   20.8513 C   0  0  0  0  0  0  0  0  0  0  0  0
  -11.4000   -5.9664   19.4442 C   0  0  0  0  0  0  0  0  0  0  0  0
  -12.0021   -5.9593   18.2599 N   0  0  0  0  0  0  0  0  0  0  0  0
  -11.1750   -5.4416   17.2373 C   0  0  0  0  0  0  0  0  0  0  0  0
  -11.5104   -5.2647   15.8681 C   0  0  0  0  0  0  0  0  0  0  0  0
  -10.5840   -4.7174   14.9653 C   0  0  0  0  0  0  0  0  0  0  0  0
   -9.3212   -4.3418   15.4048 C   0  0  0  0  0  0  0  0  0  0  0  0
   -8.9593   -4.5086   16.7486 C   0  0  0  0  0  0  0  0  0  0  0  0
   -9.9001   -5.0611   17.6499 C   0  0  0  0  0  0  0  0  0  0  0  0
   -9.7590   -5.3814   19.3510 S   0  0  0  0  0  0  0  0  0  0  0  0
  -13.4142   -7.0486   20.8343 C   0  0  0  0  0  0  0  0  0  0  0  0
  -13.2030   -8.3850   21.5699 C   0  0  0  0  0  0  0  0  0  0  0  0
  -12.4184   -9.6746   25.9260 H   0  0  0  0  0  0  0  0  0  0  0  0
  -14.0675   -9.2031   25.4460 H   0  0  0  0  0  0  0  0  0  0  0  0
  -14.8735  -11.2954   25.6270 H   0  0  0  0  0  0  0  0  0  0  0  0
  -13.6520  -12.0211   24.6101 H   0  0  0  0  0  0  0  0  0  0  0  0
  -11.6858  -11.2346   27.5054 H   0  0  0  0  0  0  0  0  0  0  0  0
  -13.7286  -15.0600   29.8815 H   0  0  0  0  0  0  0  0  0  0  0  0
  -15.6874  -16.2847   28.8277 H   0  0  0  0  0  0  0  0  0  0  0  0
  -16.4089  -15.7789   26.5700 H   0  0  0  0  0  0  0  0  0  0  0  0
  -15.3986  -13.8820   25.3241 H   0  0  0  0  0  0  0  0  0  0  0  0
  -11.5833   -7.7479   23.9426 H   0  0  0  0  0  0  0  0  0  0  0  0
  -12.8583   -6.6602   23.4933 H   0  0  0  0  0  0  0  0  0  0  0  0
  -10.6649   -6.1322   22.4552 H   0  0  0  0  0  0  0  0  0  0  0  0
  -10.6081   -7.6479   21.6107 H   0  0  0  0  0  0  0  0  0  0  0  0
  -12.3804   -5.2201   21.1873 H   0  0  0  0  0  0  0  0  0  0  0  0
  -12.4982   -5.5611   15.5292 H   0  0  0  0  0  0  0  0  0  0  0  0
  -10.8515   -4.5932   13.9192 H   0  0  0  0  0  0  0  0  0  0  0  0
   -8.6051   -3.9201   14.7023 H   0  0  0  0  0  0  0  0  0  0  0  0
   -7.9712   -4.2170   17.0928 H   0  0  0  0  0  0  0  0  0  0  0  0
  -14.2217   -6.4888   21.3222 H   0  0  0  0  0  0  0  0  0  0  0  0
  -13.7336   -7.2426   19.8043 H   0  0  0  0  0  0  0  0  0  0  0  0
  -12.3559   -8.9095   21.1458 H   0  0  0  0  0  0  0  0  0  0  0  0
  -14.0443   -9.0028   21.2178 H   0  0  0  0  0  0  0  0  0  0  0  0
  1  2  2  0
  2  3  1  0
  3  4  1  0
  4  5  1  0
  5  6  1  0
  6  7  2  0
  7  8  1  0
  8  9  2  0
  9 10  1  0
 10 11  2  0
 11 12  1  0
 12 13  2  0
  2 14  1  0
 14 15  1  0
 15 16  1  0
 16 17  1  0
 17 18  1  0
 18 19  2  0
 19 20  1  0
 20 21  2  0
 21 22  1  0
 22 23  2  0
 23 24  1  0
 24 25  2  0
 25 26  1  0
 17 27  1  0
 27 28  1  0
 13  5  1  0
 28 14  1  0
 13  8  1  0
 26 18  1  0
 25 20  1  0
  3 29  1  0
  3 30  1  0
  4 31  1  0
  4 32  1  0
  6 33  1  0
  9 34  1  0
 10 35  1  0
 11 36  1  0
 12 37  1  0
 15 38  1  0
 15 39  1  0
 16 40  1  0
 16 41  1  0
 17 42  1  0
 21 43  1  0
 22 44  1  0
 23 45  1  0
 24 46  1  0
 27 47  1  0
 27 48  1  0
 28 49  1  0
 28 50  1  0
M  END
>  <Energy>  (550) 
121.36925232292084

>  <compound_id>  (550) 
32689

>  <target_id>  (550) 
1

>  <reference_id>  (550) 
69

>  <inspiration_ids>  (550) 
[69, 52]

>  <energy_score>  (550) 
28.062592556854554

>  <distance_score>  (550) 
12.510964899335274

>  <path>  (550) 
/opt/xchem-fragalysis-2/maxwin/BulkDock/SCRATCH/511015/C32689-P69/C32689-P69.minimised.mol

>  <scratch_subdir>  (550) 
/opt/xchem-fragalysis-2/maxwin/BulkDock/SCRATCH/511015/C32689-P69

>  <fragmenstein_runtime>  (550) 
52.76196217536926

>  <fragmenstein_outcome>  (550) 
too moved

>  <fragmenstein_mode>  (550) 
expansion

>  <fragmenstein_error>  (550) 


$$$$
C32689-P52
     RDKit          3D

 50 54  0  0  0  0  0  0  0  0999 V2000
  -10.2264  -21.6323   20.3385 O   0  0  0  0  0  0  0  0  0  0  0  0
  -10.4134  -20.8458   21.2226 C   0  0  0  0  0  0  0  0  0  0  0  0
  -10.2305  -21.2152   22.7910 C   0  0  0  0  0  0  0  0  0  0  0  0
  -11.4365  -21.9973   23.5283 C   0  0  0  0  0  0  0  0  0  0  0  0
  -11.5362  -22.6065   24.9062 N   0  0  0  0  0  0  0  0  0  0  0  0
  -12.6451  -22.2894   25.6271 C   0  0  0  0  0  0  0  0  0  0  0  0
  -12.3056  -21.9911   26.8672 N   0  0  0  0  0  0  0  0  0  0  0  0
  -11.3042  -22.8518   27.0869 C   0  0  0  0  0  0  0  0  0  0  0  0
  -10.8757  -23.3026   28.3466 C   0  0  0  0  0  0  0  0  0  0  0  0
  -10.5025  -24.6311   28.4394 C   0  0  0  0  0  0  0  0  0  0  0  0
  -10.5963  -25.4247   27.3022 C   0  0  0  0  0  0  0  0  0  0  0  0
  -10.8552  -24.8900   26.0105 C   0  0  0  0  0  0  0  0  0  0  0  0
  -11.0288  -23.5079   25.8615 C   0  0  0  0  0  0  0  0  0  0  0  0
  -11.0256  -19.2035   21.1756 N   0  0  0  0  0  0  0  0  0  0  0  0
   -9.2079  -17.6742   20.9900 C   0  0  0  0  0  0  0  0  0  0  0  0
   -9.3297  -16.0208   19.5415 C   0  0  0  0  0  0  0  0  0  0  0  0
  -10.7038  -14.8452   18.4924 C   0  0  0  0  0  0  0  0  0  0  0  0
  -11.0598  -13.1752   17.1889 C   0  0  0  0  0  0  0  0  0  0  0  0
  -11.7100  -11.9456   17.2797 N   0  0  0  0  0  0  0  0  0  0  0  0
  -12.7512  -11.2096   16.2966 C   0  0  0  0  0  0  0  0  0  0  0  0
  -13.5805  -10.0272   16.4827 C   0  0  0  0  0  0  0  0  0  0  0  0
  -14.2550   -9.3894   15.4125 C   0  0  0  0  0  0  0  0  0  0  0  0
  -14.1406   -9.8827   14.1261 C   0  0  0  0  0  0  0  0  0  0  0  0
  -13.3842  -11.0319   13.9091 C   0  0  0  0  0  0  0  0  0  0  0  0
  -12.7274  -11.6551   15.0070 C   0  0  0  0  0  0  0  0  0  0  0  0
  -11.7451  -13.0153   14.9616 S   0  0  0  0  0  0  0  0  0  0  0  0
  -12.2243  -16.1358   19.1468 C   0  0  0  0  0  0  0  0  0  0  0  0
  -11.8622  -18.1254   19.4363 C   0  0  0  0  0  0  0  0  0  0  0  0
   -9.2834  -21.7364   22.9118 H   0  0  0  0  0  0  0  0  0  0  0  0
  -10.2124  -20.2588   23.2977 H   0  0  0  0  0  0  0  0  0  0  0  0
  -12.0004  -22.5872   22.8226 H   0  0  0  0  0  0  0  0  0  0  0  0
  -12.1357  -21.1532   23.6425 H   0  0  0  0  0  0  0  0  0  0  0  0
  -13.6020  -22.2187   25.1296 H   0  0  0  0  0  0  0  0  0  0  0  0
  -11.0580  -22.7099   29.2358 H   0  0  0  0  0  0  0  0  0  0  0  0
  -10.2634  -25.0683   29.4041 H   0  0  0  0  0  0  0  0  0  0  0  0
  -10.4532  -26.4947   27.3995 H   0  0  0  0  0  0  0  0  0  0  0  0
  -11.0240  -25.5813   25.2062 H   0  0  0  0  0  0  0  0  0  0  0  0
   -8.0635  -18.2420   20.7635 H   0  0  0  0  0  0  0  0  0  0  0  0
   -8.4874  -17.5810   21.9062 H   0  0  0  0  0  0  0  0  0  0  0  0
   -8.5984  -15.4250   20.0486 H   0  0  0  0  0  0  0  0  0  0  0  0
   -8.7176  -16.1201   18.5941 H   0  0  0  0  0  0  0  0  0  0  0  0
  -10.3574  -13.8381   18.9160 H   0  0  0  0  0  0  0  0  0  0  0  0
  -13.6092   -9.5050   17.4336 H   0  0  0  0  0  0  0  0  0  0  0  0
  -14.8317   -8.4886   15.6045 H   0  0  0  0  0  0  0  0  0  0  0  0
  -14.6435   -9.3944   13.2974 H   0  0  0  0  0  0  0  0  0  0  0  0
  -13.2881  -11.4531   12.9124 H   0  0  0  0  0  0  0  0  0  0  0  0
  -13.2441  -16.1086   18.7628 H   0  0  0  0  0  0  0  0  0  0  0  0
  -12.6100  -15.7222   20.1556 H   0  0  0  0  0  0  0  0  0  0  0  0
  -11.4122  -18.3474   18.4022 H   0  0  0  0  0  0  0  0  0  0  0  0
  -12.7574  -18.7150   19.1053 H   0  0  0  0  0  0  0  0  0  0  0  0
  1  2  2  0
  2  3  1  0
  3  4  1  0
  4  5  1  0
  5  6  1  0
  6  7  2  0
  7  8  1  0
  8  9  2  0
  9 10  1  0
 10 11  2  0
 11 12  1  0
 12 13  2  0
  2 14  1  0
 14 15  1  0
 15 16  1  0
 16 17  1  0
 17 18  1  0
 18 19  2  0
 19 20  1  0
 20 21  2  0
 21 22  1  0
 22 23  2  0
 23 24  1  0
 24 25  2  0
 25 26  1  0
 17 27  1  0
 27 28  1  0
 13  5  1  0
 28 14  1  0
 13  8  1  0
 26 18  1  0
 25 20  1  0
  3 29  1  0
  3 30  1  0
  4 31  1  0
  4 32  1  0
  6 33  1  0
  9 34  1  0
 10 35  1  0
 11 36  1  0
 12 37  1  0
 15 38  1  0
 15 39  1  0
 16 40  1  0
 16 41  1  0
 17 42  1  0
 21 43  1  0
 22 44  1  0
 23 45  1  0
 24 46  1  0
 27 47  1  0
 27 48  1  0
 28 49  1  0
 28 50  1  0
M  END
>  <Energy>  (551) 
1478.7761432088182

>  <compound_id>  (551) 
32689

>  <target_id>  (551) 
1

>  <reference_id>  (551) 
52

>  <inspiration_ids>  (551) 
[69, 52]

>  <energy_score>  (551) 
1385.4694834427712

>  <distance_score>  (551) 
10.371136589857382

>  <path>  (551) 
/opt/xchem-fragalysis-2/maxwin/BulkDock/SCRATCH/511015/C32689-P52/C32689-P52.minimised.mol

>  <scratch_subdir>  (551) 
/opt/xchem-fragalysis-2/maxwin/BulkDock/SCRATCH/511015/C32689-P52

>  <fragmenstein_runtime>  (551) 
27.4002423286438

>  <fragmenstein_outcome>  (551) 
too moved

>  <fragmenstein_mode>  (551) 
expansion

>  <fragmenstein_error>  (551) 


$$$$
C32690-P69
     RDKit          3D

 38 41  0  0  0  0  0  0  0  0999 V2000
  -15.1562  -12.1783   14.6753 C   0  0  0  0  0  0  0  0  0  0  0  0
  -15.9170  -11.3700   15.4681 C   0  0  0  0  0  0  0  0  0  0  0  0
  -15.3690  -10.9849   16.6813 C   0  0  0  0  0  0  0  0  0  0  0  0
  -13.9673  -11.1202   16.9056 C   0  0  0  0  0  0  0  0  0  0  0  0
  -13.0000  -10.7728   18.1829 S   0  0  0  0  0  0  0  0  0  0  0  0
  -11.0659  -11.9421   17.9596 C   0  0  0  0  0  0  0  0  0  0  0  0
  -10.2152  -13.2368   18.9737 N   0  0  0  0  0  0  0  0  0  0  0  0
   -9.8178  -15.2334   19.1550 C   0  0  0  0  0  0  0  0  0  0  0  0
  -11.0690  -16.9732   19.0765 C   0  0  0  0  0  0  0  0  0  0  0  0
  -11.3102  -18.7557   18.2813 C   0  0  0  0  0  0  0  0  0  0  0  0
  -12.0979  -19.9481   18.9649 N   0  0  0  0  0  0  0  0  0  0  0  0
  -13.4663  -20.1260   18.8900 C   0  0  0  0  0  0  0  0  0  0  0  0
  -13.9442  -20.8689   19.8660 N   0  0  0  0  0  0  0  0  0  0  0  0
  -12.8532  -21.3857   20.5100 C   0  0  0  0  0  0  0  0  0  0  0  0
  -12.8018  -22.2102   21.6570 C   0  0  0  0  0  0  0  0  0  0  0  0
  -11.5673  -22.6496   22.1404 C   0  0  0  0  0  0  0  0  0  0  0  0
  -10.4071  -22.3143   21.4520 C   0  0  0  0  0  0  0  0  0  0  0  0
  -10.4427  -21.4981   20.2986 C   0  0  0  0  0  0  0  0  0  0  0  0
  -11.6781  -20.9660   19.8725 C   0  0  0  0  0  0  0  0  0  0  0  0
  -11.3469  -11.7519   16.5861 N   0  0  0  0  0  0  0  0  0  0  0  0
  -13.0817  -11.5682   16.0273 C   0  0  0  0  0  0  0  0  0  0  0  0
  -13.8439  -12.4151   15.0854 C   0  0  0  0  0  0  0  0  0  0  0  0
  -15.5969  -12.7370   13.8571 H   0  0  0  0  0  0  0  0  0  0  0  0
  -16.9692  -11.2042   15.2622 H   0  0  0  0  0  0  0  0  0  0  0  0
  -15.9968  -10.5353   17.4475 H   0  0  0  0  0  0  0  0  0  0  0  0
   -9.2564  -12.8420   19.0396 H   0  0  0  0  0  0  0  0  0  0  0  0
   -9.0909  -15.6099   18.3639 H   0  0  0  0  0  0  0  0  0  0  0  0
   -8.9372  -15.3319   19.7931 H   0  0  0  0  0  0  0  0  0  0  0  0
  -11.9170  -16.2608   19.4848 H   0  0  0  0  0  0  0  0  0  0  0  0
  -10.9458  -17.0623   17.9818 H   0  0  0  0  0  0  0  0  0  0  0  0
  -10.3314  -19.1976   18.0386 H   0  0  0  0  0  0  0  0  0  0  0  0
  -11.8161  -18.6781   17.3044 H   0  0  0  0  0  0  0  0  0  0  0  0
  -14.0740  -19.6304   18.1483 H   0  0  0  0  0  0  0  0  0  0  0  0
  -13.7246  -22.4865   22.1572 H   0  0  0  0  0  0  0  0  0  0  0  0
  -11.5232  -23.2670   23.0325 H   0  0  0  0  0  0  0  0  0  0  0  0
   -9.4442  -22.6692   21.8136 H   0  0  0  0  0  0  0  0  0  0  0  0
   -9.5131  -21.2214   19.8091 H   0  0  0  0  0  0  0  0  0  0  0  0
  -13.3650  -13.3316   14.7367 H   0  0  0  0  0  0  0  0  0  0  0  0
  1  2  2  0
  2  3  1  0
  3  4  2  0
  4  5  1  0
  5  6  1  0
  6  7  1  0
  7  8  1  0
  8  9  1  0
  9 10  1  0
 10 11  1  0
 11 12  1  0
 12 13  2  0
 13 14  1  0
 14 15  2  0
 15 16  1  0
 16 17  2  0
 17 18  1  0
 18 19  2  0
  6 20  2  0
 20 21  1  0
 21 22  2  0
 22  1  1  0
 21  4  1  0
 19 11  1  0
 19 14  1  0
  1 23  1  0
  2 24  1  0
  3 25  1  0
  7 26  1  0
  8 27  1  0
  8 28  1  0
  9 29  1  0
  9 30  1  0
 10 31  1  0
 10 32  1  0
 12 33  1  0
 15 34  1  0
 16 35  1  0
 17 36  1  0
 18 37  1  0
 22 38  1  0
M  END
>  <Energy>  (552) 
653.81794028184038

>  <compound_id>  (552) 
32690

>  <target_id>  (552) 
1

>  <reference_id>  (552) 
69

>  <inspiration_ids>  (552) 
[69, 52]

>  <energy_score>  (552) 
602.3028968343465

>  <distance_score>  (552) 
14.219447400069429

>  <path>  (552) 
/opt/xchem-fragalysis-2/maxwin/BulkDock/SCRATCH/511015/C32690-P69/C32690-P69.minimised.mol

>  <scratch_subdir>  (552) 
/opt/xchem-fragalysis-2/maxwin/BulkDock/SCRATCH/511015/C32690-P69

>  <fragmenstein_runtime>  (552) 
18.50069522857666

>  <fragmenstein_outcome>  (552) 
too moved

>  <fragmenstein_mode>  (552) 
expansion

>  <fragmenstein_error>  (552) 


$$$$
C32690-P52
     RDKit          3D

 38 41  0  0  0  0  0  0  0  0999 V2000
   -9.2933   -6.4709   17.2116 C   0  0  0  0  0  0  0  0  0  0  0  0
   -8.2680   -6.6404   16.2969 C   0  0  0  0  0  0  0  0  0  0  0  0
   -7.8753   -8.0411   16.0577 C   0  0  0  0  0  0  0  0  0  0  0  0
   -8.6048   -9.4174   16.5856 C   0  0  0  0  0  0  0  0  0  0  0  0
   -7.9407  -11.5605   17.0917 S   0  0  0  0  0  0  0  0  0  0  0  0
   -9.7210  -12.0832   18.1055 C   0  0  0  0  0  0  0  0  0  0  0  0
  -10.3563  -13.3232   19.1202 N   0  0  0  0  0  0  0  0  0  0  0  0
  -11.3295  -13.4424   20.9322 C   0  0  0  0  0  0  0  0  0  0  0  0
  -11.6530  -15.1621   22.2755 C   0  0  0  0  0  0  0  0  0  0  0  0
  -10.8563  -16.5737   23.7231 C   0  0  0  0  0  0  0  0  0  0  0  0
  -10.0239  -18.3572   23.9650 N   0  0  0  0  0  0  0  0  0  0  0  0
   -8.7564  -18.9864   24.5981 C   0  0  0  0  0  0  0  0  0  0  0  0
   -8.4223  -20.1954   24.2685 N   0  0  0  0  0  0  0  0  0  0  0  0
   -9.5931  -20.8072   24.2169 C   0  0  0  0  0  0  0  0  0  0  0  0
   -9.7804  -22.1953   24.3830 C   0  0  0  0  0  0  0  0  0  0  0  0
  -11.0569  -22.7242   24.4256 C   0  0  0  0  0  0  0  0  0  0  0  0
  -12.1243  -21.8721   24.2315 C   0  0  0  0  0  0  0  0  0  0  0  0
  -11.9472  -20.4849   24.0292 C   0  0  0  0  0  0  0  0  0  0  0  0
  -10.6546  -19.8963   24.0606 C   0  0  0  0  0  0  0  0  0  0  0  0
  -10.1253  -10.6748   18.0990 N   0  0  0  0  0  0  0  0  0  0  0  0
   -9.2774   -9.2180   17.7665 C   0  0  0  0  0  0  0  0  0  0  0  0
   -9.7228   -7.6999   17.8695 C   0  0  0  0  0  0  0  0  0  0  0  0
   -9.7814   -5.5250   17.3997 H   0  0  0  0  0  0  0  0  0  0  0  0
   -7.7755   -5.8176   15.7937 H   0  0  0  0  0  0  0  0  0  0  0  0
   -6.8164   -8.0439   16.1473 H   0  0  0  0  0  0  0  0  0  0  0  0
   -9.6455  -14.0531   19.1995 H   0  0  0  0  0  0  0  0  0  0  0  0
  -10.2715  -13.0899   20.9074 H   0  0  0  0  0  0  0  0  0  0  0  0
  -11.5635  -12.4252   21.2580 H   0  0  0  0  0  0  0  0  0  0  0  0
  -12.2830  -15.8524   21.6839 H   0  0  0  0  0  0  0  0  0  0  0  0
  -12.4455  -14.8773   22.9858 H   0  0  0  0  0  0  0  0  0  0  0  0
  -11.7533  -16.7361   24.3517 H   0  0  0  0  0  0  0  0  0  0  0  0
  -10.2219  -16.1776   24.5489 H   0  0  0  0  0  0  0  0  0  0  0  0
   -8.1757  -18.5210   25.3901 H   0  0  0  0  0  0  0  0  0  0  0  0
   -8.9076  -22.8266   24.5095 H   0  0  0  0  0  0  0  0  0  0  0  0
  -11.2119  -23.7867   24.5759 H   0  0  0  0  0  0  0  0  0  0  0  0
  -13.1370  -22.2714   24.2336 H   0  0  0  0  0  0  0  0  0  0  0  0
  -12.8470  -19.9017   23.8774 H   0  0  0  0  0  0  0  0  0  0  0  0
  -10.7403   -7.6584   18.1824 H   0  0  0  0  0  0  0  0  0  0  0  0
  1  2  2  0
  2  3  1  0
  3  4  2  0
  4  5  1  0
  5  6  1  0
  6  7  1  0
  7  8  1  0
  8  9  1  0
  9 10  1  0
 10 11  1  0
 11 12  1  0
 12 13  2  0
 13 14  1  0
 14 15  2  0
 15 16  1  0
 16 17  2  0
 17 18  1  0
 18 19  2  0
  6 20  2  0
 20 21  1  0
 21 22  2  0
 22  1  1  0
 21  4  1  0
 19 11  1  0
 19 14  1  0
  1 23  1  0
  2 24  1  0
  3 25  1  0
  7 26  1  0
  8 27  1  0
  8 28  1  0
  9 29  1  0
  9 30  1  0
 10 31  1  0
 10 32  1  0
 12 33  1  0
 15 34  1  0
 16 35  1  0
 17 36  1  0
 18 37  1  0
 22 38  1  0
M  END
>  <Energy>  (553) 
917.70933875774699

>  <compound_id>  (553) 
32690

>  <target_id>  (553) 
1

>  <reference_id>  (553) 
52

>  <inspiration_ids>  (553) 
[69, 52]

>  <energy_score>  (553) 
866.1942953102673

>  <distance_score>  (553) 
11.223755292594909

>  <path>  (553) 
/opt/xchem-fragalysis-2/maxwin/BulkDock/SCRATCH/511015/C32690-P52/C32690-P52.minimised.mol

>  <scratch_subdir>  (553) 
/opt/xchem-fragalysis-2/maxwin/BulkDock/SCRATCH/511015/C32690-P52

>  <fragmenstein_runtime>  (553) 
20.160951614379883

>  <fragmenstein_outcome>  (553) 
too moved

>  <fragmenstein_mode>  (553) 
expansion

>  <fragmenstein_error>  (553) 


$$$$
C32691-P69
     RDKit          3D

 40 43  0  0  0  0  0  0  0  0999 V2000
   -7.5398  -10.4956    9.8800 N   0  0  0  0  0  0  0  0  0  0  0  0
   -7.7486  -11.1855   11.0836 C   0  0  0  0  0  0  0  0  0  0  0  0
   -8.2027  -12.5114   11.1147 C   0  0  0  0  0  0  0  0  0  0  0  0
   -8.6065  -13.1651   12.3248 C   0  0  0  0  0  0  0  0  0  0  0  0
   -8.6140  -12.4356   13.5336 C   0  0  0  0  0  0  0  0  0  0  0  0
   -9.0640  -12.7609   14.9931 N   0  0  0  0  0  0  0  0  0  0  0  0
   -8.5176  -12.0850   16.3806 C   0  0  0  0  0  0  0  0  0  0  0  0
   -9.1154  -12.3284   18.1980 N   0  0  0  0  0  0  0  0  0  0  0  0
   -9.5438  -13.3866   19.9000 C   0  0  0  0  0  0  0  0  0  0  0  0
  -10.7315  -13.5557   21.8162 C   0  0  0  0  0  0  0  0  0  0  0  0
  -11.1566  -15.2281   23.2835 C   0  0  0  0  0  0  0  0  0  0  0  0
  -10.4706  -16.7179   24.6258 N   0  0  0  0  0  0  0  0  0  0  0  0
   -9.6230  -15.9760   26.0807 C   0  0  0  0  0  0  0  0  0  0  0  0
  -10.4491  -15.8298   27.1080 N   0  0  0  0  0  0  0  0  0  0  0  0
  -10.4930  -17.1585   27.4120 C   0  0  0  0  0  0  0  0  0  0  0  0
  -10.9306  -18.1993   28.9662 C   0  0  0  0  0  0  0  0  0  0  0  0
  -10.2496  -20.0866   29.2951 C   0  0  0  0  0  0  0  0  0  0  0  0
   -9.1865  -20.1629   27.6875 C   0  0  0  0  0  0  0  0  0  0  0  0
   -8.6868  -18.8865   26.6387 C   0  0  0  0  0  0  0  0  0  0  0  0
   -9.7200  -17.4577   26.1935 C   0  0  0  0  0  0  0  0  0  0  0  0
   -8.9483  -10.5173   14.7655 S   0  0  0  0  0  0  0  0  0  0  0  0
   -8.2474  -11.1400   13.4132 C   0  0  0  0  0  0  0  0  0  0  0  0
   -7.7773  -10.4770   12.2706 C   0  0  0  0  0  0  0  0  0  0  0  0
   -7.0057   -9.6373    9.9794 H   0  0  0  0  0  0  0  0  0  0  0  0
   -7.1966  -11.0839    9.1282 H   0  0  0  0  0  0  0  0  0  0  0  0
   -8.2722  -13.0746   10.1860 H   0  0  0  0  0  0  0  0  0  0  0  0
   -8.9487  -14.1938   12.3106 H   0  0  0  0  0  0  0  0  0  0  0  0
   -8.1897  -12.0912   18.5997 H   0  0  0  0  0  0  0  0  0  0  0  0
   -8.5146  -13.6046   20.1129 H   0  0  0  0  0  0  0  0  0  0  0  0
  -10.0414  -14.1478   19.3251 H   0  0  0  0  0  0  0  0  0  0  0  0
  -10.9509  -12.5373   22.1833 H   0  0  0  0  0  0  0  0  0  0  0  0
  -11.5726  -13.4900   21.2396 H   0  0  0  0  0  0  0  0  0  0  0  0
  -11.7892  -15.9342   22.7275 H   0  0  0  0  0  0  0  0  0  0  0  0
  -12.0632  -15.0750   23.9130 H   0  0  0  0  0  0  0  0  0  0  0  0
   -8.6751  -15.4750   25.8198 H   0  0  0  0  0  0  0  0  0  0  0  0
  -11.9353  -17.8277   29.2137 H   0  0  0  0  0  0  0  0  0  0  0  0
  -10.8644  -20.9015   29.6741 H   0  0  0  0  0  0  0  0  0  0  0  0
   -8.9883  -21.1873   27.3121 H   0  0  0  0  0  0  0  0  0  0  0  0
   -8.1738  -19.3399   25.7625 H   0  0  0  0  0  0  0  0  0  0  0  0
   -7.5718   -9.4174   12.2965 H   0  0  0  0  0  0  0  0  0  0  0  0
  1  2  1  0
  2  3  2  0
  3  4  1  0
  4  5  2  0
  5  6  1  0
  6  7  2  0
  7  8  1  0
  8  9  1  0
  9 10  1  0
 10 11  1  0
 11 12  1  0
 12 13  1  0
 13 14  2  0
 14 15  1  0
 15 16  2  0
 16 17  1  0
 17 18  2  0
 18 19  1  0
 19 20  2  0
  7 21  1  0
 21 22  1  0
 22 23  2  0
 23  2  1  0
 22  5  1  0
 20 12  1  0
 20 15  1  0
  1 24  1  0
  1 25  1  0
  3 26  1  0
  4 27  1  0
  8 28  1  0
  9 29  1  0
  9 30  1  0
 10 31  1  0
 10 32  1  0
 11 33  1  0
 11 34  1  0
 13 35  1  0
 16 36  1  0
 17 37  1  0
 18 38  1  0
 19 39  1  0
 23 40  1  0
M  END
>  <Energy>  (554) 
1740.1996632059975

>  <compound_id>  (554) 
32691

>  <target_id>  (554) 
1

>  <reference_id>  (554) 
69

>  <inspiration_ids>  (554) 
[69, 52]

>  <energy_score>  (554) 
1691.5658962629664

>  <distance_score>  (554) 
10.562001172231955

>  <path>  (554) 
/opt/xchem-fragalysis-2/maxwin/BulkDock/SCRATCH/511015/C32691-P69/C32691-P69.minimised.mol

>  <scratch_subdir>  (554) 
/opt/xchem-fragalysis-2/maxwin/BulkDock/SCRATCH/511015/C32691-P69

>  <fragmenstein_runtime>  (554) 
18.50792407989502

>  <fragmenstein_outcome>  (554) 
too moved

>  <fragmenstein_mode>  (554) 
expansion

>  <fragmenstein_error>  (554) 


$$$$
C32691-P52
     RDKit          3D

 40 43  0  0  0  0  0  0  0  0999 V2000
  -10.5290  -11.4734    8.6896 N   0  0  0  0  0  0  0  0  0  0  0  0
  -10.1477  -11.5010   10.0386 C   0  0  0  0  0  0  0  0  0  0  0  0
   -8.9567  -10.8975   10.4055 C   0  0  0  0  0  0  0  0  0  0  0  0
   -8.5749  -10.8918   11.7396 C   0  0  0  0  0  0  0  0  0  0  0  0
   -9.3164  -11.6272   12.6909 C   0  0  0  0  0  0  0  0  0  0  0  0
   -9.1040  -11.6949   14.0755 N   0  0  0  0  0  0  0  0  0  0  0  0
   -9.3539  -12.6214   15.0873 C   0  0  0  0  0  0  0  0  0  0  0  0
   -9.5700  -12.8795   16.9594 N   0  0  0  0  0  0  0  0  0  0  0  0
  -10.3712  -14.0073   18.4682 C   0  0  0  0  0  0  0  0  0  0  0  0
  -11.4495  -15.7208   19.2266 C   0  0  0  0  0  0  0  0  0  0  0  0
  -13.1272  -16.1422   20.3134 C   0  0  0  0  0  0  0  0  0  0  0  0
  -13.6512  -16.3172   21.7984 N   0  0  0  0  0  0  0  0  0  0  0  0
  -12.9796  -15.9860   22.9592 C   0  0  0  0  0  0  0  0  0  0  0  0
  -13.5494  -16.3127   24.0795 N   0  0  0  0  0  0  0  0  0  0  0  0
  -14.6214  -17.0373   23.6782 C   0  0  0  0  0  0  0  0  0  0  0  0
  -15.4528  -17.8152   24.4754 C   0  0  0  0  0  0  0  0  0  0  0  0
  -16.4488  -18.5885   23.9003 C   0  0  0  0  0  0  0  0  0  0  0  0
  -16.6548  -18.5149   22.5279 C   0  0  0  0  0  0  0  0  0  0  0  0
  -15.8631  -17.6986   21.6969 C   0  0  0  0  0  0  0  0  0  0  0  0
  -14.8062  -16.9902   22.2909 C   0  0  0  0  0  0  0  0  0  0  0  0
  -10.9453  -13.2047   13.6971 S   0  0  0  0  0  0  0  0  0  0  0  0
  -10.3812  -12.3604   12.3113 C   0  0  0  0  0  0  0  0  0  0  0  0
  -10.8417  -12.2962   10.9753 C   0  0  0  0  0  0  0  0  0  0  0  0
  -10.1706  -10.6554    8.2050 H   0  0  0  0  0  0  0  0  0  0  0  0
  -11.5299  -11.5759    8.5617 H   0  0  0  0  0  0  0  0  0  0  0  0
   -8.3437  -10.3800    9.6737 H   0  0  0  0  0  0  0  0  0  0  0  0
   -7.6745  -10.3712   12.0281 H   0  0  0  0  0  0  0  0  0  0  0  0
   -8.7053  -12.5170   17.3787 H   0  0  0  0  0  0  0  0  0  0  0  0
   -9.8957  -13.3690   19.2200 H   0  0  0  0  0  0  0  0  0  0  0  0
   -9.4219  -14.6285   18.5793 H   0  0  0  0  0  0  0  0  0  0  0  0
  -11.8192  -15.3375   20.3105 H   0  0  0  0  0  0  0  0  0  0  0  0
  -12.3979  -15.9789   18.7218 H   0  0  0  0  0  0  0  0  0  0  0  0
  -13.4570  -15.1915   20.1953 H   0  0  0  0  0  0  0  0  0  0  0  0
  -13.8720  -16.7543   19.8268 H   0  0  0  0  0  0  0  0  0  0  0  0
  -12.0587  -15.5006   22.8415 H   0  0  0  0  0  0  0  0  0  0  0  0
  -15.2262  -17.8156   25.5214 H   0  0  0  0  0  0  0  0  0  0  0  0
  -17.0670  -19.2354   24.5135 H   0  0  0  0  0  0  0  0  0  0  0  0
  -17.4484  -19.1106   22.0794 H   0  0  0  0  0  0  0  0  0  0  0  0
  -16.0171  -17.6948   20.6230 H   0  0  0  0  0  0  0  0  0  0  0  0
  -11.7183  -12.8623   10.6783 H   0  0  0  0  0  0  0  0  0  0  0  0
  1  2  1  0
  2  3  2  0
  3  4  1  0
  4  5  2  0
  5  6  1  0
  6  7  2  0
  7  8  1  0
  8  9  1  0
  9 10  1  0
 10 11  1  0
 11 12  1  0
 12 13  1  0
 13 14  2  0
 14 15  1  0
 15 16  2  0
 16 17  1  0
 17 18  2  0
 18 19  1  0
 19 20  2  0
  7 21  1  0
 21 22  1  0
 22 23  2  0
 23  2  1  0
 22  5  1  0
 20 12  1  0
 20 15  1  0
  1 24  1  0
  1 25  1  0
  3 26  1  0
  4 27  1  0
  8 28  1  0
  9 29  1  0
  9 30  1  0
 10 31  1  0
 10 32  1  0
 11 33  1  0
 11 34  1  0
 13 35  1  0
 16 36  1  0
 17 37  1  0
 18 38  1  0
 19 39  1  0
 23 40  1  0
M  END
>  <Energy>  (555) 
703.28303525132674

>  <compound_id>  (555) 
32691

>  <target_id>  (555) 
1

>  <reference_id>  (555) 
52

>  <inspiration_ids>  (555) 
[69, 52]

>  <energy_score>  (555) 
654.6492683083011

>  <distance_score>  (555) 
12.250839417534644

>  <path>  (555) 
/opt/xchem-fragalysis-2/maxwin/BulkDock/SCRATCH/511015/C32691-P52/C32691-P52.minimised.mol

>  <scratch_subdir>  (555) 
/opt/xchem-fragalysis-2/maxwin/BulkDock/SCRATCH/511015/C32691-P52

>  <fragmenstein_runtime>  (555) 
24.52726912498474

>  <fragmenstein_outcome>  (555) 
too moved

>  <fragmenstein_mode>  (555) 
expansion

>  <fragmenstein_error>  (555) 


$$$$
C32692-P69
     RDKit          3D

 42 46  0  0  0  0  0  0  0  0999 V2000
   -6.9707   -6.7659   15.9175 C   0  0  0  0  0  0  0  0  0  0  0  0
   -7.3299   -7.0999   14.6241 C   0  0  0  0  0  0  0  0  0  0  0  0
   -7.8539   -8.6230   14.0236 C   0  0  0  0  0  0  0  0  0  0  0  0
   -7.8138   -9.7895   14.8207 C   0  0  0  0  0  0  0  0  0  0  0  0
   -8.8403  -11.4232   14.7620 S   0  0  0  0  0  0  0  0  0  0  0  0
   -8.0965  -12.0135   16.7635 C   0  0  0  0  0  0  0  0  0  0  0  0
   -7.9147  -13.2664   17.8612 N   0  0  0  0  0  0  0  0  0  0  0  0
   -8.0363  -12.1783   18.7675 C   0  0  0  0  0  0  0  0  0  0  0  0
   -7.1282  -12.6687   19.6759 C   0  0  0  0  0  0  0  0  0  0  0  0
   -8.4097  -13.6408   19.8288 C   0  0  0  0  0  0  0  0  0  0  0  0
   -8.3712  -15.0018   18.8362 C   0  0  0  0  0  0  0  0  0  0  0  0
   -7.4213  -16.3744   20.1821 C   0  0  0  0  0  0  0  0  0  0  0  0
   -7.0888  -17.8126   21.0715 N   0  0  0  0  0  0  0  0  0  0  0  0
   -6.4633  -18.9094   20.4575 C   0  0  0  0  0  0  0  0  0  0  0  0
   -6.7063  -20.0447   21.0706 N   0  0  0  0  0  0  0  0  0  0  0  0
   -7.1798  -19.6980   22.2976 C   0  0  0  0  0  0  0  0  0  0  0  0
   -7.4629  -20.5625   23.3846 C   0  0  0  0  0  0  0  0  0  0  0  0
   -7.7028  -20.0428   24.6543 C   0  0  0  0  0  0  0  0  0  0  0  0
   -7.6118  -18.6744   24.8363 C   0  0  0  0  0  0  0  0  0  0  0  0
   -7.3756  -17.8075   23.7439 C   0  0  0  0  0  0  0  0  0  0  0  0
   -7.2556  -18.2954   22.4190 C   0  0  0  0  0  0  0  0  0  0  0  0
   -6.9938  -10.8835   16.9727 N   0  0  0  0  0  0  0  0  0  0  0  0
   -6.7997   -9.5758   16.1270 C   0  0  0  0  0  0  0  0  0  0  0  0
   -6.8895   -7.9565   16.6889 C   0  0  0  0  0  0  0  0  0  0  0  0
   -6.8176   -5.7715   16.2965 H   0  0  0  0  0  0  0  0  0  0  0  0
   -7.0958   -6.2533   13.9504 H   0  0  0  0  0  0  0  0  0  0  0  0
   -7.9540   -8.8731   12.9700 H   0  0  0  0  0  0  0  0  0  0  0  0
   -9.0958  -11.9269   18.9463 H   0  0  0  0  0  0  0  0  0  0  0  0
   -7.5280  -11.2356   18.7650 H   0  0  0  0  0  0  0  0  0  0  0  0
   -6.6633  -11.8578   20.2610 H   0  0  0  0  0  0  0  0  0  0  0  0
   -6.1770  -12.5899   19.0851 H   0  0  0  0  0  0  0  0  0  0  0  0
   -8.4027  -14.1755   20.6674 H   0  0  0  0  0  0  0  0  0  0  0  0
   -9.4328  -13.3313   19.7196 H   0  0  0  0  0  0  0  0  0  0  0  0
   -9.4368  -15.2120   19.0509 H   0  0  0  0  0  0  0  0  0  0  0  0
   -7.6250  -15.9554   21.1349 H   0  0  0  0  0  0  0  0  0  0  0  0
   -6.4290  -16.6236   19.8119 H   0  0  0  0  0  0  0  0  0  0  0  0
   -5.9744  -18.8153   19.4957 H   0  0  0  0  0  0  0  0  0  0  0  0
   -7.4125  -21.6355   23.2247 H   0  0  0  0  0  0  0  0  0  0  0  0
   -7.8694  -20.7111   25.4934 H   0  0  0  0  0  0  0  0  0  0  0  0
   -7.6722  -18.2573   25.8396 H   0  0  0  0  0  0  0  0  0  0  0  0
   -7.1702  -16.7806   23.9846 H   0  0  0  0  0  0  0  0  0  0  0  0
   -7.2774   -7.7814   17.6594 H   0  0  0  0  0  0  0  0  0  0  0  0
  1  2  2  0
  2  3  1  0
  3  4  2  0
  4  5  1  0
  5  6  1  0
  6  7  1  0
  7  8  1  0
  8  9  1  0
  9 10  1  0
 10 11  1  0
 11 12  1  0
 12 13  1  0
 13 14  1  0
 14 15  2  0
 15 16  1  0
 16 17  2  0
 17 18  1  0
 18 19  2  0
 19 20  1  0
 20 21  2  0
  6 22  2  0
 22 23  1  0
 23 24  2  0
 24  1  1  0
 23  4  1  0
 11  7  1  0
 21 13  1  0
 21 16  1  0
  1 25  1  0
  2 26  1  0
  3 27  1  0
  8 28  1  0
  8 29  1  0
  9 30  1  0
  9 31  1  0
 10 32  1  0
 10 33  1  0
 11 34  1  0
 12 35  1  0
 12 36  1  0
 14 37  1  0
 17 38  1  0
 18 39  1  0
 19 40  1  0
 20 41  1  0
 24 42  1  0
M  END
>  <Energy>  (556) 
887.91110061325378

>  <compound_id>  (556) 
32692

>  <target_id>  (556) 
1

>  <reference_id>  (556) 
69

>  <inspiration_ids>  (556) 
[69, 52]

>  <energy_score>  (556) 
795.9027403038953

>  <distance_score>  (556) 
11.631055307701425

>  <path>  (556) 
/opt/xchem-fragalysis-2/maxwin/BulkDock/SCRATCH/511015/C32692-P69/C32692-P69.minimised.mol

>  <scratch_subdir>  (556) 
/opt/xchem-fragalysis-2/maxwin/BulkDock/SCRATCH/511015/C32692-P69

>  <fragmenstein_runtime>  (556) 
27.34064292907715

>  <fragmenstein_outcome>  (556) 
too moved

>  <fragmenstein_mode>  (556) 
expansion

>  <fragmenstein_error>  (556) 


$$$$
C32692-P52
     RDKit          3D

 42 46  0  0  0  0  0  0  0  0999 V2000
   -9.2537  -11.5853   10.8128 C   0  0  0  0  0  0  0  0  0  0  0  0
   -8.5215  -10.4438   10.8879 C   0  0  0  0  0  0  0  0  0  0  0  0
   -8.1906   -9.8994   12.1340 C   0  0  0  0  0  0  0  0  0  0  0  0
   -8.4616  -10.5763   13.4219 C   0  0  0  0  0  0  0  0  0  0  0  0
   -7.3421  -10.6460   15.4167 S   0  0  0  0  0  0  0  0  0  0  0  0
   -8.8135  -12.4057   15.7615 C   0  0  0  0  0  0  0  0  0  0  0  0
   -8.9740  -13.1928   17.2582 N   0  0  0  0  0  0  0  0  0  0  0  0
   -8.2820  -12.2006   17.8680 C   0  0  0  0  0  0  0  0  0  0  0  0
   -9.6960  -12.2005   18.1854 C   0  0  0  0  0  0  0  0  0  0  0  0
   -9.4765  -13.2377   19.2698 C   0  0  0  0  0  0  0  0  0  0  0  0
  -10.4354  -13.8738   18.5290 C   0  0  0  0  0  0  0  0  0  0  0  0
  -11.6868  -13.6976   20.2694 C   0  0  0  0  0  0  0  0  0  0  0  0
  -12.5344  -15.4906   20.5015 N   0  0  0  0  0  0  0  0  0  0  0  0
  -13.2277  -16.3731   19.6278 C   0  0  0  0  0  0  0  0  0  0  0  0
  -13.8641  -17.4306   20.0463 N   0  0  0  0  0  0  0  0  0  0  0  0
  -13.9061  -17.3494   21.3875 C   0  0  0  0  0  0  0  0  0  0  0  0
  -14.6062  -18.2127   22.2551 C   0  0  0  0  0  0  0  0  0  0  0  0
  -14.6919  -17.9030   23.5994 C   0  0  0  0  0  0  0  0  0  0  0  0
  -13.9917  -16.8081   24.0668 C   0  0  0  0  0  0  0  0  0  0  0  0
  -13.0833  -16.0948   23.2588 C   0  0  0  0  0  0  0  0  0  0  0  0
  -13.1250  -16.2691   21.8569 C   0  0  0  0  0  0  0  0  0  0  0  0
   -9.5042  -12.5446   14.5094 N   0  0  0  0  0  0  0  0  0  0  0  0
   -9.2928  -11.7195   13.3144 C   0  0  0  0  0  0  0  0  0  0  0  0
   -9.6107  -12.1987   12.0020 C   0  0  0  0  0  0  0  0  0  0  0  0
   -9.4947  -12.0395    9.8573 H   0  0  0  0  0  0  0  0  0  0  0  0
   -8.1769   -9.9686    9.9732 H   0  0  0  0  0  0  0  0  0  0  0  0
   -7.6427   -8.9682   11.9957 H   0  0  0  0  0  0  0  0  0  0  0  0
   -8.0855  -11.2257   17.5066 H   0  0  0  0  0  0  0  0  0  0  0  0
   -7.4822  -12.4568   18.5527 H   0  0  0  0  0  0  0  0  0  0  0  0
   -9.9464  -11.1700   18.2748 H   0  0  0  0  0  0  0  0  0  0  0  0
  -10.6408  -12.3271   17.4789 H   0  0  0  0  0  0  0  0  0  0  0  0
   -8.6308  -13.8682   19.2688 H   0  0  0  0  0  0  0  0  0  0  0  0
   -9.7792  -12.9421   20.2734 H   0  0  0  0  0  0  0  0  0  0  0  0
  -10.2006  -14.9733   18.5631 H   0  0  0  0  0  0  0  0  0  0  0  0
  -11.3687  -13.6180   21.3212 H   0  0  0  0  0  0  0  0  0  0  0  0
  -12.3706  -13.0107   20.3126 H   0  0  0  0  0  0  0  0  0  0  0  0
  -13.1846  -16.1033   18.6487 H   0  0  0  0  0  0  0  0  0  0  0  0
  -15.1617  -19.0482   21.8408 H   0  0  0  0  0  0  0  0  0  0  0  0
  -15.3254  -18.4891   24.2589 H   0  0  0  0  0  0  0  0  0  0  0  0
  -14.1600  -16.4814   25.0907 H   0  0  0  0  0  0  0  0  0  0  0  0
  -12.5828  -15.2789   23.7255 H   0  0  0  0  0  0  0  0  0  0  0  0
  -10.0018  -13.2080   11.9201 H   0  0  0  0  0  0  0  0  0  0  0  0
  1  2  2  0
  2  3  1  0
  3  4  2  0
  4  5  1  0
  5  6  1  0
  6  7  1  0
  7  8  1  0
  8  9  1  0
  9 10  1  0
 10 11  1  0
 11 12  1  0
 12 13  1  0
 13 14  1  0
 14 15  2  0
 15 16  1  0
 16 17  2  0
 17 18  1  0
 18 19  2  0
 19 20  1  0
 20 21  2  0
  6 22  2  0
 22 23  1  0
 23 24  2  0
 24  1  1  0
 23  4  1  0
 11  7  1  0
 21 13  1  0
 21 16  1  0
  1 25  1  0
  2 26  1  0
  3 27  1  0
  8 28  1  0
  8 29  1  0
  9 30  1  0
  9 31  1  0
 10 32  1  0
 10 33  1  0
 11 34  1  0
 12 35  1  0
 12 36  1  0
 14 37  1  0
 17 38  1  0
 18 39  1  0
 19 40  1  0
 20 41  1  0
 24 42  1  0
M  END
>  <Energy>  (557) 
848.61095674849525

>  <compound_id>  (557) 
32692

>  <target_id>  (557) 
1

>  <reference_id>  (557) 
52

>  <inspiration_ids>  (557) 
[69, 52]

>  <energy_score>  (557) 
756.6025964391536

>  <distance_score>  (557) 
12.30544969291027

>  <path>  (557) 
/opt/xchem-fragalysis-2/maxwin/BulkDock/SCRATCH/511015/C32692-P52/C32692-P52.minimised.mol

>  <scratch_subdir>  (557) 
/opt/xchem-fragalysis-2/maxwin/BulkDock/SCRATCH/511015/C32692-P52

>  <fragmenstein_runtime>  (557) 
27.24903702735901

>  <fragmenstein_outcome>  (557) 
too moved

>  <fragmenstein_mode>  (557) 
expansion

>  <fragmenstein_error>  (557) 


$$$$
C32689-P69
     RDKit          3D

 50 54  0  0  0  0  0  0  0  0999 V2000
  -12.1050  -10.7558   23.4720 O   0  0  0  0  0  0  0  0  0  0  0  0
  -12.7791   -9.8161   23.8132 C   0  0  0  0  0  0  0  0  0  0  0  0
  -13.2585   -9.9192   25.2709 C   0  0  0  0  0  0  0  0  0  0  0  0
  -13.7857  -11.3981   25.5027 C   0  0  0  0  0  0  0  0  0  0  0  0
  -13.3692  -12.2409   26.6133 N   0  0  0  0  0  0  0  0  0  0  0  0
  -12.4009  -12.0445   27.5533 C   0  0  0  0  0  0  0  0  0  0  0  0
  -12.4719  -12.9261   28.5311 N   0  0  0  0  0  0  0  0  0  0  0  0
  -13.5100  -13.7543   28.1920 C   0  0  0  0  0  0  0  0  0  0  0  0
  -14.1007  -14.8031   28.8979 C   0  0  0  0  0  0  0  0  0  0  0  0
  -15.1752  -15.4894   28.3025 C   0  0  0  0  0  0  0  0  0  0  0  0
  -15.6062  -15.1987   27.0184 C   0  0  0  0  0  0  0  0  0  0  0  0
  -15.0357  -14.1463   26.3116 C   0  0  0  0  0  0  0  0  0  0  0  0
  -14.0233  -13.4150   26.9468 C   0  0  0  0  0  0  0  0  0  0  0  0
  -13.2774   -8.6798   23.0456 N   0  0  0  0  0  0  0  0  0  0  0  0
  -12.2539   -7.4970   23.1072 C   0  0  0  0  0  0  0  0  0  0  0  0
  -11.2962   -6.8980   21.9858 C   0  0  0  0  0  0  0  0  0  0  0  0
  -12.1100   -6.2328   20.8513 C   0  0  0  0  0  0  0  0  0  0  0  0
  -11.4000   -5.9664   19.4442 C   0  0  0  0  0  0  0  0  0  0  0  0
  -12.0021   -5.9593   18.2599 N   0  0  0  0  0  0  0  0  0  0  0  0
  -11.1750   -5.4416   17.2373 C   0  0  0  0  0  0  0  0  0  0  0  0
  -11.5104   -5.2647   15.8681 C   0  0  0  0  0  0  0  0  0  0  0  0
  -10.5840   -4.7174   14.9653 C   0  0  0  0  0  0  0  0  0  0  0  0
   -9.3212   -4.3418   15.4048 C   0  0  0  0  0  0  0  0  0  0  0  0
   -8.9593   -4.5086   16.7486 C   0  0  0  0  0  0  0  0  0  0  0  0
   -9.9001   -5.0611   17.6499 C   0  0  0  0  0  0  0  0  0  0  0  0
   -9.7590   -5.3814   19.3510 S   0  0  0  0  0  0  0  0  0  0  0  0
  -13.4142   -7.0486   20.8343 C   0  0  0  0  0  0  0  0  0  0  0  0
  -13.2030   -8.3850   21.5699 C   0  0  0  0  0  0  0  0  0  0  0  0
  -12.4184   -9.6746   25.9260 H   0  0  0  0  0  0  0  0  0  0  0  0
  -14.0675   -9.2031   25.4460 H   0  0  0  0  0  0  0  0  0  0  0  0
  -14.8735  -11.2954   25.6270 H   0  0  0  0  0  0  0  0  0  0  0  0
  -13.6520  -12.0211   24.6101 H   0  0  0  0  0  0  0  0  0  0  0  0
  -11.6858  -11.2346   27.5054 H   0  0  0  0  0  0  0  0  0  0  0  0
  -13.7286  -15.0600   29.8815 H   0  0  0  0  0  0  0  0  0  0  0  0
  -15.6874  -16.2847   28.8277 H   0  0  0  0  0  0  0  0  0  0  0  0
  -16.4089  -15.7789   26.5700 H   0  0  0  0  0  0  0  0  0  0  0  0
  -15.3986  -13.8820   25.3241 H   0  0  0  0  0  0  0  0  0  0  0  0
  -11.5833   -7.7479   23.9426 H   0  0  0  0  0  0  0  0  0  0  0  0
  -12.8583   -6.6602   23.4933 H   0  0  0  0  0  0  0  0  0  0  0  0
  -10.6649   -6.1322   22.4552 H   0  0  0  0  0  0  0  0  0  0  0  0
  -10.6081   -7.6479   21.6107 H   0  0  0  0  0  0  0  0  0  0  0  0
  -12.3804   -5.2201   21.1873 H   0  0  0  0  0  0  0  0  0  0  0  0
  -12.4982   -5.5611   15.5292 H   0  0  0  0  0  0  0  0  0  0  0  0
  -10.8515   -4.5932   13.9192 H   0  0  0  0  0  0  0  0  0  0  0  0
   -8.6051   -3.9201   14.7023 H   0  0  0  0  0  0  0  0  0  0  0  0
   -7.9712   -4.2170   17.0928 H   0  0  0  0  0  0  0  0  0  0  0  0
  -14.2217   -6.4888   21.3222 H   0  0  0  0  0  0  0  0  0  0  0  0
  -13.7336   -7.2426   19.8043 H   0  0  0  0  0  0  0  0  0  0  0  0
  -12.3559   -8.9095   21.1458 H   0  0  0  0  0  0  0  0  0  0  0  0
  -14.0443   -9.0028   21.2178 H   0  0  0  0  0  0  0  0  0  0  0  0
  1  2  2  0
  2  3  1  0
  3  4  1  0
  4  5  1  0
  5  6  1  0
  6  7  2  0
  7  8  1  0
  8  9  2  0
  9 10  1  0
 10 11  2  0
 11 12  1  0
 12 13  2  0
  2 14  1  0
 14 15  1  0
 15 16  1  0
 16 17  1  0
 17 18  1  0
 18 19  2  0
 19 20  1  0
 20 21  2  0
 21 22  1  0
 22 23  2  0
 23 24  1  0
 24 25  2  0
 25 26  1  0
 17 27  1  0
 27 28  1  0
 13  5  1  0
 28 14  1  0
 13  8  1  0
 26 18  1  0
 25 20  1  0
  3 29  1  0
  3 30  1  0
  4 31  1  0
  4 32  1  0
  6 33  1  0
  9 34  1  0
 10 35  1  0
 11 36  1  0
 12 37  1  0
 15 38  1  0
 15 39  1  0
 16 40  1  0
 16 41  1  0
 17 42  1  0
 21 43  1  0
 22 44  1  0
 23 45  1  0
 24 46  1  0
 27 47  1  0
 27 48  1  0
 28 49  1  0
 28 50  1  0
M  END
>  <Energy>  (558) 
121.36925232292084

>  <compound_id>  (558) 
32689

>  <target_id>  (558) 
1

>  <reference_id>  (558) 
69

>  <inspiration_ids>  (558) 
[69, 52]

>  <energy_score>  (558) 
28.062592556854554

>  <distance_score>  (558) 
12.510964899335274

>  <path>  (558) 
/opt/xchem-fragalysis-2/maxwin/BulkDock/SCRATCH/511015/C32689-P69/C32689-P69.minimised.mol

>  <scratch_subdir>  (558) 
/opt/xchem-fragalysis-2/maxwin/BulkDock/SCRATCH/511015/C32689-P69

>  <fragmenstein_runtime>  (558) 
50.86508917808533

>  <fragmenstein_outcome>  (558) 
too moved

>  <fragmenstein_mode>  (558) 
expansion

>  <fragmenstein_error>  (558) 


$$$$
C32689-P52
     RDKit          3D

 50 54  0  0  0  0  0  0  0  0999 V2000
  -10.2264  -21.6323   20.3385 O   0  0  0  0  0  0  0  0  0  0  0  0
  -10.4134  -20.8458   21.2226 C   0  0  0  0  0  0  0  0  0  0  0  0
  -10.2305  -21.2152   22.7910 C   0  0  0  0  0  0  0  0  0  0  0  0
  -11.4365  -21.9973   23.5283 C   0  0  0  0  0  0  0  0  0  0  0  0
  -11.5362  -22.6065   24.9062 N   0  0  0  0  0  0  0  0  0  0  0  0
  -12.6451  -22.2894   25.6271 C   0  0  0  0  0  0  0  0  0  0  0  0
  -12.3056  -21.9911   26.8672 N   0  0  0  0  0  0  0  0  0  0  0  0
  -11.3042  -22.8518   27.0869 C   0  0  0  0  0  0  0  0  0  0  0  0
  -10.8757  -23.3026   28.3466 C   0  0  0  0  0  0  0  0  0  0  0  0
  -10.5025  -24.6311   28.4394 C   0  0  0  0  0  0  0  0  0  0  0  0
  -10.5963  -25.4247   27.3022 C   0  0  0  0  0  0  0  0  0  0  0  0
  -10.8552  -24.8900   26.0105 C   0  0  0  0  0  0  0  0  0  0  0  0
  -11.0288  -23.5079   25.8615 C   0  0  0  0  0  0  0  0  0  0  0  0
  -11.0256  -19.2035   21.1756 N   0  0  0  0  0  0  0  0  0  0  0  0
   -9.2079  -17.6742   20.9900 C   0  0  0  0  0  0  0  0  0  0  0  0
   -9.3297  -16.0208   19.5415 C   0  0  0  0  0  0  0  0  0  0  0  0
  -10.7038  -14.8452   18.4924 C   0  0  0  0  0  0  0  0  0  0  0  0
  -11.0598  -13.1752   17.1889 C   0  0  0  0  0  0  0  0  0  0  0  0
  -11.7100  -11.9456   17.2797 N   0  0  0  0  0  0  0  0  0  0  0  0
  -12.7512  -11.2096   16.2966 C   0  0  0  0  0  0  0  0  0  0  0  0
  -13.5805  -10.0272   16.4827 C   0  0  0  0  0  0  0  0  0  0  0  0
  -14.2550   -9.3894   15.4125 C   0  0  0  0  0  0  0  0  0  0  0  0
  -14.1406   -9.8827   14.1261 C   0  0  0  0  0  0  0  0  0  0  0  0
  -13.3842  -11.0319   13.9091 C   0  0  0  0  0  0  0  0  0  0  0  0
  -12.7274  -11.6551   15.0070 C   0  0  0  0  0  0  0  0  0  0  0  0
  -11.7451  -13.0153   14.9616 S   0  0  0  0  0  0  0  0  0  0  0  0
  -12.2243  -16.1358   19.1468 C   0  0  0  0  0  0  0  0  0  0  0  0
  -11.8622  -18.1254   19.4363 C   0  0  0  0  0  0  0  0  0  0  0  0
   -9.2834  -21.7364   22.9118 H   0  0  0  0  0  0  0  0  0  0  0  0
  -10.2124  -20.2588   23.2977 H   0  0  0  0  0  0  0  0  0  0  0  0
  -12.0004  -22.5872   22.8226 H   0  0  0  0  0  0  0  0  0  0  0  0
  -12.1357  -21.1532   23.6425 H   0  0  0  0  0  0  0  0  0  0  0  0
  -13.6020  -22.2187   25.1296 H   0  0  0  0  0  0  0  0  0  0  0  0
  -11.0580  -22.7099   29.2358 H   0  0  0  0  0  0  0  0  0  0  0  0
  -10.2634  -25.0683   29.4041 H   0  0  0  0  0  0  0  0  0  0  0  0
  -10.4532  -26.4947   27.3995 H   0  0  0  0  0  0  0  0  0  0  0  0
  -11.0240  -25.5813   25.2062 H   0  0  0  0  0  0  0  0  0  0  0  0
   -8.0635  -18.2420   20.7635 H   0  0  0  0  0  0  0  0  0  0  0  0
   -8.4874  -17.5810   21.9062 H   0  0  0  0  0  0  0  0  0  0  0  0
   -8.5984  -15.4250   20.0486 H   0  0  0  0  0  0  0  0  0  0  0  0
   -8.7176  -16.1201   18.5941 H   0  0  0  0  0  0  0  0  0  0  0  0
  -10.3574  -13.8381   18.9160 H   0  0  0  0  0  0  0  0  0  0  0  0
  -13.6092   -9.5050   17.4336 H   0  0  0  0  0  0  0  0  0  0  0  0
  -14.8317   -8.4886   15.6045 H   0  0  0  0  0  0  0  0  0  0  0  0
  -14.6435   -9.3944   13.2974 H   0  0  0  0  0  0  0  0  0  0  0  0
  -13.2881  -11.4531   12.9124 H   0  0  0  0  0  0  0  0  0  0  0  0
  -13.2441  -16.1086   18.7628 H   0  0  0  0  0  0  0  0  0  0  0  0
  -12.6100  -15.7222   20.1556 H   0  0  0  0  0  0  0  0  0  0  0  0
  -11.4122  -18.3474   18.4022 H   0  0  0  0  0  0  0  0  0  0  0  0
  -12.7574  -18.7150   19.1053 H   0  0  0  0  0  0  0  0  0  0  0  0
  1  2  2  0
  2  3  1  0
  3  4  1  0
  4  5  1  0
  5  6  1  0
  6  7  2  0
  7  8  1  0
  8  9  2  0
  9 10  1  0
 10 11  2  0
 11 12  1  0
 12 13  2  0
  2 14  1  0
 14 15  1  0
 15 16  1  0
 16 17  1  0
 17 18  1  0
 18 19  2  0
 19 20  1  0
 20 21  2  0
 21 22  1  0
 22 23  2  0
 23 24  1  0
 24 25  2  0
 25 26  1  0
 17 27  1  0
 27 28  1  0
 13  5  1  0
 28 14  1  0
 13  8  1  0
 26 18  1  0
 25 20  1  0
  3 29  1  0
  3 30  1  0
  4 31  1  0
  4 32  1  0
  6 33  1  0
  9 34  1  0
 10 35  1  0
 11 36  1  0
 12 37  1  0
 15 38  1  0
 15 39  1  0
 16 40  1  0
 16 41  1  0
 17 42  1  0
 21 43  1  0
 22 44  1  0
 23 45  1  0
 24 46  1  0
 27 47  1  0
 27 48  1  0
 28 49  1  0
 28 50  1  0
M  END
>  <Energy>  (559) 
1478.7761432088182

>  <compound_id>  (559) 
32689

>  <target_id>  (559) 
1

>  <reference_id>  (559) 
52

>  <inspiration_ids>  (559) 
[69, 52]

>  <energy_score>  (559) 
1385.4694834427712

>  <distance_score>  (559) 
10.371136589857382

>  <path>  (559) 
/opt/xchem-fragalysis-2/maxwin/BulkDock/SCRATCH/511015/C32689-P52/C32689-P52.minimised.mol

>  <scratch_subdir>  (559) 
/opt/xchem-fragalysis-2/maxwin/BulkDock/SCRATCH/511015/C32689-P52

>  <fragmenstein_runtime>  (559) 
26.797877550125122

>  <fragmenstein_outcome>  (559) 
too moved

>  <fragmenstein_mode>  (559) 
expansion

>  <fragmenstein_error>  (559) 


$$$$
C32693-P69
     RDKit          3D

 45 49  0  0  0  0  0  0  0  0999 V2000
   -7.9304   -6.2699    7.6303 C   0  0  0  0  0  0  0  0  0  0  0  0
   -7.2948   -5.4325    8.5892 C   0  0  0  0  0  0  0  0  0  0  0  0
   -6.4209   -6.3314    9.6738 C   0  0  0  0  0  0  0  0  0  0  0  0
   -6.4631   -7.9976   10.3650 C   0  0  0  0  0  0  0  0  0  0  0  0
   -6.5380   -8.1738   12.6509 S   0  0  0  0  0  0  0  0  0  0  0  0
   -8.3399   -9.5823   13.0423 C   0  0  0  0  0  0  0  0  0  0  0  0
   -8.7985  -10.8355   14.6712 C   0  0  0  0  0  0  0  0  0  0  0  0
  -10.1764  -11.9441   15.6440 C   0  0  0  0  0  0  0  0  0  0  0  0
   -9.9949  -12.2495   17.7291 C   0  0  0  0  0  0  0  0  0  0  0  0
   -8.8230  -13.0819   19.0136 N   0  0  0  0  0  0  0  0  0  0  0  0
   -8.7148  -15.0099   19.5304 C   0  0  0  0  0  0  0  0  0  0  0  0
   -7.5288  -16.0585   20.7949 N   0  0  0  0  0  0  0  0  0  0  0  0
   -6.4603  -17.0875   20.0001 C   0  0  0  0  0  0  0  0  0  0  0  0
   -5.5070  -17.6481   20.6703 N   0  0  0  0  0  0  0  0  0  0  0  0
   -6.0083  -17.8161   21.8925 C   0  0  0  0  0  0  0  0  0  0  0  0
   -5.3353  -18.5485   22.9210 C   0  0  0  0  0  0  0  0  0  0  0  0
   -5.9809  -19.0247   24.0465 C   0  0  0  0  0  0  0  0  0  0  0  0
   -7.3379  -18.9113   24.0477 C   0  0  0  0  0  0  0  0  0  0  0  0
   -7.9903  -18.1787   23.0216 C   0  0  0  0  0  0  0  0  0  0  0  0
   -7.3617  -17.3170   21.9963 C   0  0  0  0  0  0  0  0  0  0  0  0
   -7.8003  -12.2840   18.1592 C   0  0  0  0  0  0  0  0  0  0  0  0
   -8.0266  -11.6005   16.3592 C   0  0  0  0  0  0  0  0  0  0  0  0
   -8.6627   -9.4500   11.3750 N   0  0  0  0  0  0  0  0  0  0  0  0
   -7.6302   -8.8241    9.8801 C   0  0  0  0  0  0  0  0  0  0  0  0
   -7.8805   -8.0827    8.2897 C   0  0  0  0  0  0  0  0  0  0  0  0
   -8.6214   -5.8532    6.8906 H   0  0  0  0  0  0  0  0  0  0  0  0
   -7.3454   -4.3862    8.3780 H   0  0  0  0  0  0  0  0  0  0  0  0
   -5.6672   -6.0939   10.4136 H   0  0  0  0  0  0  0  0  0  0  0  0
   -8.5577  -11.6562   13.9631 H   0  0  0  0  0  0  0  0  0  0  0  0
  -11.0731  -11.3471   15.7647 H   0  0  0  0  0  0  0  0  0  0  0  0
  -10.1773  -12.8780   15.0914 H   0  0  0  0  0  0  0  0  0  0  0  0
  -10.7271  -12.8515   18.0120 H   0  0  0  0  0  0  0  0  0  0  0  0
  -10.4033  -11.3838   18.2607 H   0  0  0  0  0  0  0  0  0  0  0  0
   -8.3104  -15.5237   18.6240 H   0  0  0  0  0  0  0  0  0  0  0  0
   -9.6614  -15.5066   19.5351 H   0  0  0  0  0  0  0  0  0  0  0  0
   -6.6931  -17.2732   18.9634 H   0  0  0  0  0  0  0  0  0  0  0  0
   -4.2878  -18.7868   22.7579 H   0  0  0  0  0  0  0  0  0  0  0  0
   -5.4479  -19.5950   24.7975 H   0  0  0  0  0  0  0  0  0  0  0  0
   -7.9253  -19.4547   24.7834 H   0  0  0  0  0  0  0  0  0  0  0  0
   -9.0218  -18.5154   23.0135 H   0  0  0  0  0  0  0  0  0  0  0  0
   -7.6647  -11.4303   18.8142 H   0  0  0  0  0  0  0  0  0  0  0  0
   -6.7342  -12.4222   18.2725 H   0  0  0  0  0  0  0  0  0  0  0  0
   -7.0854  -10.9060   16.5966 H   0  0  0  0  0  0  0  0  0  0  0  0
   -8.1838  -12.6187   16.1839 H   0  0  0  0  0  0  0  0  0  0  0  0
   -8.8440   -8.5847    8.0459 H   0  0  0  0  0  0  0  0  0  0  0  0
  1  2  2  0
  2  3  1  0
  3  4  2  0
  4  5  1  0
  5  6  1  0
  6  7  1  0
  7  8  1  0
  8  9  1  0
  9 10  1  0
 10 11  1  0
 11 12  1  0
 12 13  1  0
 13 14  2  0
 14 15  1  0
 15 16  2  0
 16 17  1  0
 17 18  2  0
 18 19  1  0
 19 20  2  0
 10 21  1  0
 21 22  1  0
  6 23  2  0
 23 24  1  0
 24 25  2  0
 25  1  1  0
 24  4  1  0
 22  7  1  0
 20 12  1  0
 20 15  1  0
  1 26  1  0
  2 27  1  0
  3 28  1  0
  7 29  1  0
  8 30  1  0
  8 31  1  0
  9 32  1  0
  9 33  1  0
 11 34  1  0
 11 35  1  0
 13 36  1  0
 16 37  1  0
 17 38  1  0
 18 39  1  0
 19 40  1  0
 21 41  1  0
 21 42  1  0
 22 43  1  0
 22 44  1  0
 25 45  1  0
M  END
>  <Energy>  (560) 
1585.6450150577966

>  <compound_id>  (560) 
32693

>  <target_id>  (560) 
1

>  <reference_id>  (560) 
69

>  <inspiration_ids>  (560) 
[69, 52]

>  <energy_score>  (560) 
1471.014413995316

>  <distance_score>  (560) 
10.169847153937589

>  <path>  (560) 
/opt/xchem-fragalysis-2/maxwin/BulkDock/SCRATCH/511015/C32693-P69/C32693-P69.minimised.mol

>  <scratch_subdir>  (560) 
/opt/xchem-fragalysis-2/maxwin/BulkDock/SCRATCH/511015/C32693-P69

>  <fragmenstein_runtime>  (560) 
28.815725803375244

>  <fragmenstein_outcome>  (560) 
too moved

>  <fragmenstein_mode>  (560) 
expansion

>  <fragmenstein_error>  (560) 


$$$$
C32693-P52
     RDKit          3D

 45 49  0  0  0  0  0  0  0  0999 V2000
   -8.5570   -4.5174   13.1911 C   0  0  0  0  0  0  0  0  0  0  0  0
   -8.5154   -3.8994   14.4295 C   0  0  0  0  0  0  0  0  0  0  0  0
   -8.2208   -4.6500   15.5511 C   0  0  0  0  0  0  0  0  0  0  0  0
   -8.0467   -6.0196   15.3473 C   0  0  0  0  0  0  0  0  0  0  0  0
   -7.8042   -7.2905   16.3607 S   0  0  0  0  0  0  0  0  0  0  0  0
   -7.6665   -8.8100   15.6444 C   0  0  0  0  0  0  0  0  0  0  0  0
   -6.6098  -10.4758   16.0549 C   0  0  0  0  0  0  0  0  0  0  0  0
   -7.2343  -11.8135   16.9720 C   0  0  0  0  0  0  0  0  0  0  0  0
   -7.3089  -12.0363   18.5523 C   0  0  0  0  0  0  0  0  0  0  0  0
   -6.1704  -11.2887   19.8214 N   0  0  0  0  0  0  0  0  0  0  0  0
   -6.8233  -11.6381   21.7215 C   0  0  0  0  0  0  0  0  0  0  0  0
   -6.6693  -11.5215   23.6775 N   0  0  0  0  0  0  0  0  0  0  0  0
   -7.1823  -10.5840   24.5839 C   0  0  0  0  0  0  0  0  0  0  0  0
   -6.4493  -10.7610   25.7759 N   0  0  0  0  0  0  0  0  0  0  0  0
   -6.7941  -11.9201   26.2945 C   0  0  0  0  0  0  0  0  0  0  0  0
   -6.6607  -12.5895   27.5542 C   0  0  0  0  0  0  0  0  0  0  0  0
   -7.3548  -13.7674   27.8335 C   0  0  0  0  0  0  0  0  0  0  0  0
   -8.0645  -14.3512   26.8186 C   0  0  0  0  0  0  0  0  0  0  0  0
   -7.9111  -13.8360   25.5123 C   0  0  0  0  0  0  0  0  0  0  0  0
   -7.2482  -12.5003   25.1515 C   0  0  0  0  0  0  0  0  0  0  0  0
   -4.7760  -10.9839   18.8854 C   0  0  0  0  0  0  0  0  0  0  0  0
   -4.8668  -10.8416   16.9621 C   0  0  0  0  0  0  0  0  0  0  0  0
   -7.9434   -8.0877   14.4309 N   0  0  0  0  0  0  0  0  0  0  0  0
   -8.1002   -6.6520   14.1680 C   0  0  0  0  0  0  0  0  0  0  0  0
   -8.2979   -5.8867   13.0173 C   0  0  0  0  0  0  0  0  0  0  0  0
   -8.8221   -3.8998   12.3563 H   0  0  0  0  0  0  0  0  0  0  0  0
   -8.7305   -2.8408   14.5188 H   0  0  0  0  0  0  0  0  0  0  0  0
   -8.1933   -4.2155   16.5433 H   0  0  0  0  0  0  0  0  0  0  0  0
   -6.4960  -10.7287   15.0418 H   0  0  0  0  0  0  0  0  0  0  0  0
   -8.2142  -12.1272   16.6161 H   0  0  0  0  0  0  0  0  0  0  0  0
   -6.4566  -12.5393   16.7944 H   0  0  0  0  0  0  0  0  0  0  0  0
   -7.8020  -12.9346   18.8939 H   0  0  0  0  0  0  0  0  0  0  0  0
   -8.0474  -11.2536   18.3726 H   0  0  0  0  0  0  0  0  0  0  0  0
   -7.0541  -10.6397   21.9864 H   0  0  0  0  0  0  0  0  0  0  0  0
   -7.8991  -11.6972   21.6379 H   0  0  0  0  0  0  0  0  0  0  0  0
   -7.7910   -9.7488   24.3169 H   0  0  0  0  0  0  0  0  0  0  0  0
   -6.0596  -12.1241   28.3274 H   0  0  0  0  0  0  0  0  0  0  0  0
   -7.3320  -14.1963   28.8292 H   0  0  0  0  0  0  0  0  0  0  0  0
   -8.6151  -15.2709   26.9878 H   0  0  0  0  0  0  0  0  0  0  0  0
   -8.2911  -14.4465   24.7210 H   0  0  0  0  0  0  0  0  0  0  0  0
   -4.3141  -10.0542   19.2257 H   0  0  0  0  0  0  0  0  0  0  0  0
   -3.9865  -11.6784   19.0996 H   0  0  0  0  0  0  0  0  0  0  0  0
   -4.2918  -11.7014   16.7337 H   0  0  0  0  0  0  0  0  0  0  0  0
   -4.1552  -10.0468   16.6444 H   0  0  0  0  0  0  0  0  0  0  0  0
   -8.2655   -6.3281   12.0362 H   0  0  0  0  0  0  0  0  0  0  0  0
  1  2  2  0
  2  3  1  0
  3  4  2  0
  4  5  1  0
  5  6  1  0
  6  7  1  0
  7  8  1  0
  8  9  1  0
  9 10  1  0
 10 11  1  0
 11 12  1  0
 12 13  1  0
 13 14  2  0
 14 15  1  0
 15 16  2  0
 16 17  1  0
 17 18  2  0
 18 19  1  0
 19 20  2  0
 10 21  1  0
 21 22  1  0
  6 23  2  0
 23 24  1  0
 24 25  2  0
 25  1  1  0
 24  4  1  0
 22  7  1  0
 20 12  1  0
 20 15  1  0
  1 26  1  0
  2 27  1  0
  3 28  1  0
  7 29  1  0
  8 30  1  0
  8 31  1  0
  9 32  1  0
  9 33  1  0
 11 34  1  0
 11 35  1  0
 13 36  1  0
 16 37  1  0
 17 38  1  0
 18 39  1  0
 19 40  1  0
 21 41  1  0
 21 42  1  0
 22 43  1  0
 22 44  1  0
 25 45  1  0
M  END
>  <Energy>  (561) 
870.69168435955669

>  <compound_id>  (561) 
32693

>  <target_id>  (561) 
1

>  <reference_id>  (561) 
52

>  <inspiration_ids>  (561) 
[69, 52]

>  <energy_score>  (561) 
756.0610832970588

>  <distance_score>  (561) 
11.25093826784127

>  <path>  (561) 
/opt/xchem-fragalysis-2/maxwin/BulkDock/SCRATCH/511015/C32693-P52/C32693-P52.minimised.mol

>  <scratch_subdir>  (561) 
/opt/xchem-fragalysis-2/maxwin/BulkDock/SCRATCH/511015/C32693-P52

>  <fragmenstein_runtime>  (561) 
34.31534957885742

>  <fragmenstein_outcome>  (561) 
too moved

>  <fragmenstein_mode>  (561) 
expansion

>  <fragmenstein_error>  (561) 


$$$$
C32694-P69
     RDKit          3D

 37 40  0  0  0  0  0  0  0  0999 V2000
  -11.2651  -13.5336   21.7481 C   0  0  0  0  0  0  0  0  0  0  0  0
  -10.4761  -13.6466   19.8358 C   0  0  0  0  0  0  0  0  0  0  0  0
   -9.7660  -12.6221   18.3040 C   0  0  0  0  0  0  0  0  0  0  0  0
   -8.6019  -12.3780   18.5035 O   0  0  0  0  0  0  0  0  0  0  0  0
  -10.5460  -12.2215   16.6574 N   0  0  0  0  0  0  0  0  0  0  0  0
   -9.8062  -11.6228   15.1066 C   0  0  0  0  0  0  0  0  0  0  0  0
   -9.2371  -12.4230   14.1165 N   0  0  0  0  0  0  0  0  0  0  0  0
   -8.6077  -11.7209   12.9207 C   0  0  0  0  0  0  0  0  0  0  0  0
   -8.1747  -12.1096   11.5967 C   0  0  0  0  0  0  0  0  0  0  0  0
   -6.0328  -12.3832   11.3738 Br  0  0  0  0  0  0  0  0  0  0  0  0
   -8.3258  -11.1702   10.5565 C   0  0  0  0  0  0  0  0  0  0  0  0
   -7.8125   -9.9380   10.8672 C   0  0  0  0  0  0  0  0  0  0  0  0
   -7.6521   -9.6213   12.2181 C   0  0  0  0  0  0  0  0  0  0  0  0
   -8.3951  -10.3868   13.1323 C   0  0  0  0  0  0  0  0  0  0  0  0
   -9.2237   -9.9265   14.4997 S   0  0  0  0  0  0  0  0  0  0  0  0
  -11.3906  -15.5430   20.0615 N   0  0  0  0  0  0  0  0  0  0  0  0
  -13.0402  -15.3122   20.4961 C   0  0  0  0  0  0  0  0  0  0  0  0
  -13.3038  -15.4599   21.7541 N   0  0  0  0  0  0  0  0  0  0  0  0
  -12.9547  -16.7110   21.7178 C   0  0  0  0  0  0  0  0  0  0  0  0
  -13.8002  -17.7567   22.2288 C   0  0  0  0  0  0  0  0  0  0  0  0
  -13.5753  -19.0811   21.8879 C   0  0  0  0  0  0  0  0  0  0  0  0
  -12.5764  -19.3259   20.9744 C   0  0  0  0  0  0  0  0  0  0  0  0
  -11.8027  -18.2557   20.4346 C   0  0  0  0  0  0  0  0  0  0  0  0
  -11.7431  -16.8779   20.8946 C   0  0  0  0  0  0  0  0  0  0  0  0
  -12.1543  -12.9415   21.9397 H   0  0  0  0  0  0  0  0  0  0  0  0
  -11.5791  -14.4509   22.2405 H   0  0  0  0  0  0  0  0  0  0  0  0
  -10.4916  -13.1148   22.4468 H   0  0  0  0  0  0  0  0  0  0  0  0
   -9.5166  -14.2507   19.5687 H   0  0  0  0  0  0  0  0  0  0  0  0
  -11.4762  -12.5650   16.6505 H   0  0  0  0  0  0  0  0  0  0  0  0
   -8.3280  -11.5000    9.5201 H   0  0  0  0  0  0  0  0  0  0  0  0
   -7.4449   -9.2866   10.0821 H   0  0  0  0  0  0  0  0  0  0  0  0
   -7.1351   -8.7260   12.5231 H   0  0  0  0  0  0  0  0  0  0  0  0
  -13.7143  -14.9923   19.7035 H   0  0  0  0  0  0  0  0  0  0  0  0
  -14.6576  -17.4879   22.8394 H   0  0  0  0  0  0  0  0  0  0  0  0
  -14.2100  -19.8739   22.2682 H   0  0  0  0  0  0  0  0  0  0  0  0
  -12.4798  -20.3219   20.5467 H   0  0  0  0  0  0  0  0  0  0  0  0
  -11.5388  -18.4854   19.4081 H   0  0  0  0  0  0  0  0  0  0  0  0
  1  2  1  0
  2  3  1  0
  3  4  2  0
  3  5  1  0
  5  6  1  0
  6  7  2  0
  7  8  1  0
  8  9  2  0
  9 10  1  0
  9 11  1  0
 11 12  2  0
 12 13  1  0
 13 14  2  0
 14 15  1  0
  2 16  1  0
 16 17  1  0
 17 18  2  0
 18 19  1  0
 19 20  2  0
 20 21  1  0
 21 22  2  0
 22 23  1  0
 23 24  2  0
 15  6  1  0
 24 16  1  0
 14  8  1  0
 24 19  1  0
  1 25  1  0
  1 26  1  0
  1 27  1  0
  2 28  1  0
  5 29  1  0
 11 30  1  0
 12 31  1  0
 13 32  1  0
 17 33  1  0
 20 34  1  0
 21 35  1  0
 22 36  1  0
 23 37  1  0
M  END
>  <Energy>  (562) 
806.28329760253712

>  <compound_id>  (562) 
32694

>  <target_id>  (562) 
1

>  <reference_id>  (562) 
69

>  <inspiration_ids>  (562) 
[69, 52]

>  <energy_score>  (562) 
722.4994375814769

>  <distance_score>  (562) 
12.419855712856156

>  <path>  (562) 
/opt/xchem-fragalysis-2/maxwin/BulkDock/SCRATCH/511015/C32694-P69/C32694-P69.minimised.mol

>  <scratch_subdir>  (562) 
/opt/xchem-fragalysis-2/maxwin/BulkDock/SCRATCH/511015/C32694-P69

>  <fragmenstein_runtime>  (562) 
20.128891468048096

>  <fragmenstein_outcome>  (562) 
too moved

>  <fragmenstein_mode>  (562) 
expansion

>  <fragmenstein_error>  (562) 


$$$$
C32694-P52
     RDKit          3D

 37 40  0  0  0  0  0  0  0  0999 V2000
   -7.2831  -19.4678   20.8211 C   0  0  0  0  0  0  0  0  0  0  0  0
   -8.3145  -18.6575   21.5539 C   0  0  0  0  0  0  0  0  0  0  0  0
   -8.5251  -16.9052   21.6216 C   0  0  0  0  0  0  0  0  0  0  0  0
   -8.8585  -16.5751   22.7644 O   0  0  0  0  0  0  0  0  0  0  0  0
   -8.3844  -15.9074   20.0987 N   0  0  0  0  0  0  0  0  0  0  0  0
   -8.8280  -14.0505   19.7060 C   0  0  0  0  0  0  0  0  0  0  0  0
   -7.6925  -12.8554   19.6386 N   0  0  0  0  0  0  0  0  0  0  0  0
   -7.3605  -11.7880   21.2361 C   0  0  0  0  0  0  0  0  0  0  0  0
   -6.2085  -11.1574   21.9766 C   0  0  0  0  0  0  0  0  0  0  0  0
   -4.4491  -10.6489   21.3086 Br  0  0  0  0  0  0  0  0  0  0  0  0
   -6.4795  -10.3935   23.1440 C   0  0  0  0  0  0  0  0  0  0  0  0
   -7.7662  -10.1773   23.6288 C   0  0  0  0  0  0  0  0  0  0  0  0
   -8.8651  -10.7894   23.0499 C   0  0  0  0  0  0  0  0  0  0  0  0
   -8.6316  -11.6268   21.9496 C   0  0  0  0  0  0  0  0  0  0  0  0
  -10.1665  -12.6679   21.0025 S   0  0  0  0  0  0  0  0  0  0  0  0
   -9.8544  -19.4281   21.4890 N   0  0  0  0  0  0  0  0  0  0  0  0
  -10.9956  -18.8464   20.8804 C   0  0  0  0  0  0  0  0  0  0  0  0
  -12.0698  -19.5766   20.8155 N   0  0  0  0  0  0  0  0  0  0  0  0
  -11.8491  -20.4620   21.7901 C   0  0  0  0  0  0  0  0  0  0  0  0
  -12.8610  -21.1250   22.5089 C   0  0  0  0  0  0  0  0  0  0  0  0
  -12.5098  -21.8834   23.5894 C   0  0  0  0  0  0  0  0  0  0  0  0
  -11.1672  -22.1277   23.7487 C   0  0  0  0  0  0  0  0  0  0  0  0
  -10.1117  -21.5586   22.9386 C   0  0  0  0  0  0  0  0  0  0  0  0
  -10.4682  -20.5360   22.1010 C   0  0  0  0  0  0  0  0  0  0  0  0
   -6.7945  -20.1724   21.5042 H   0  0  0  0  0  0  0  0  0  0  0  0
   -7.7107  -20.0742   20.0178 H   0  0  0  0  0  0  0  0  0  0  0  0
   -6.5054  -18.8195   20.4068 H   0  0  0  0  0  0  0  0  0  0  0  0
   -8.1106  -18.8150   22.6003 H   0  0  0  0  0  0  0  0  0  0  0  0
   -8.0018  -16.4631   19.3472 H   0  0  0  0  0  0  0  0  0  0  0  0
   -5.6645   -9.8763   23.6538 H   0  0  0  0  0  0  0  0  0  0  0  0
   -7.9071   -9.5411   24.5017 H   0  0  0  0  0  0  0  0  0  0  0  0
   -9.8629  -10.6645   23.4576 H   0  0  0  0  0  0  0  0  0  0  0  0
  -11.0646  -17.8232   20.5413 H   0  0  0  0  0  0  0  0  0  0  0  0
  -13.9012  -20.9359   22.2677 H   0  0  0  0  0  0  0  0  0  0  0  0
  -13.2600  -22.3335   24.2287 H   0  0  0  0  0  0  0  0  0  0  0  0
  -10.9078  -22.8157   24.5580 H   0  0  0  0  0  0  0  0  0  0  0  0
   -9.0736  -21.8296   23.0830 H   0  0  0  0  0  0  0  0  0  0  0  0
  1  2  1  0
  2  3  1  0
  3  4  2  0
  3  5  1  0
  5  6  1  0
  6  7  2  0
  7  8  1  0
  8  9  2  0
  9 10  1  0
  9 11  1  0
 11 12  2  0
 12 13  1  0
 13 14  2  0
 14 15  1  0
  2 16  1  0
 16 17  1  0
 17 18  2  0
 18 19  1  0
 19 20  2  0
 20 21  1  0
 21 22  2  0
 22 23  1  0
 23 24  2  0
 15  6  1  0
 24 16  1  0
 14  8  1  0
 24 19  1  0
  1 25  1  0
  1 26  1  0
  1 27  1  0
  2 28  1  0
  5 29  1  0
 11 30  1  0
 12 31  1  0
 13 32  1  0
 17 33  1  0
 20 34  1  0
 21 35  1  0
 22 36  1  0
 23 37  1  0
M  END
>  <Energy>  (563) 
526.575883933505

>  <compound_id>  (563) 
32694

>  <target_id>  (563) 
1

>  <reference_id>  (563) 
52

>  <inspiration_ids>  (563) 
[69, 52]

>  <energy_score>  (563) 
442.79202391244405

>  <distance_score>  (563) 
14.17000232129006

>  <path>  (563) 
/opt/xchem-fragalysis-2/maxwin/BulkDock/SCRATCH/511015/C32694-P52/C32694-P52.minimised.mol

>  <scratch_subdir>  (563) 
/opt/xchem-fragalysis-2/maxwin/BulkDock/SCRATCH/511015/C32694-P52

>  <fragmenstein_runtime>  (563) 
16.272846221923828

>  <fragmenstein_outcome>  (563) 
too moved

>  <fragmenstein_mode>  (563) 
expansion

>  <fragmenstein_error>  (563) 


$$$$
C32695-P69
     RDKit          3D

 50 54  0  0  0  0  0  0  0  0999 V2000
  -15.9582  -16.7050   15.4330 O   0  0  0  0  0  0  0  0  0  0  0  0
  -15.6596  -15.8184   16.1914 C   0  0  0  0  0  0  0  0  0  0  0  0
  -15.8895  -16.0795   17.7711 C   0  0  0  0  0  0  0  0  0  0  0  0
  -15.8414  -17.5921   18.3472 C   0  0  0  0  0  0  0  0  0  0  0  0
  -15.7680  -17.8233   19.8331 N   0  0  0  0  0  0  0  0  0  0  0  0
  -16.4269  -17.0417   20.7486 C   0  0  0  0  0  0  0  0  0  0  0  0
  -16.2506  -17.4166   21.9948 N   0  0  0  0  0  0  0  0  0  0  0  0
  -15.5234  -18.5670   21.9329 C   0  0  0  0  0  0  0  0  0  0  0  0
  -15.1150  -19.4078   22.9935 C   0  0  0  0  0  0  0  0  0  0  0  0
  -14.3711  -20.5531   22.7113 C   0  0  0  0  0  0  0  0  0  0  0  0
  -14.0378  -20.8426   21.3897 C   0  0  0  0  0  0  0  0  0  0  0  0
  -14.4348  -20.0082   20.3162 C   0  0  0  0  0  0  0  0  0  0  0  0
  -15.1932  -18.8577   20.5980 C   0  0  0  0  0  0  0  0  0  0  0  0
  -15.0480  -14.4617   15.9245 N   0  0  0  0  0  0  0  0  0  0  0  0
  -14.5512  -13.8646   14.6878 C   0  0  0  0  0  0  0  0  0  0  0  0
  -14.6153  -14.5114   13.4592 C   0  0  0  0  0  0  0  0  0  0  0  0
  -14.0013  -13.9838   12.2893 C   0  0  0  0  0  0  0  0  0  0  0  0
  -13.2251  -12.8072   12.3289 C   0  0  0  0  0  0  0  0  0  0  0  0
  -12.4799  -12.2857   11.2847 N   0  0  0  0  0  0  0  0  0  0  0  0
  -11.7131  -11.3079   11.7045 C   0  0  0  0  0  0  0  0  0  0  0  0
  -10.7064  -10.7733   10.9501 N   0  0  0  0  0  0  0  0  0  0  0  0
   -9.3497  -10.9126   11.5396 C   0  0  0  0  0  0  0  0  0  0  0  0
   -8.2597  -10.8195   10.4610 C   0  0  0  0  0  0  0  0  0  0  0  0
   -8.3711  -11.8461    9.4610 O   0  0  0  0  0  0  0  0  0  0  0  0
   -9.7337  -12.2115    9.1772 C   0  0  0  0  0  0  0  0  0  0  0  0
  -10.7362  -11.0974    9.5035 C   0  0  0  0  0  0  0  0  0  0  0  0
  -12.0877  -10.7742   13.3148 S   0  0  0  0  0  0  0  0  0  0  0  0
  -13.1637  -12.1205   13.5379 C   0  0  0  0  0  0  0  0  0  0  0  0
  -13.8827  -12.5959   14.6906 C   0  0  0  0  0  0  0  0  0  0  0  0
  -16.8743  -15.6579   18.0061 H   0  0  0  0  0  0  0  0  0  0  0  0
  -15.1566  -15.4837   18.3011 H   0  0  0  0  0  0  0  0  0  0  0  0
  -16.7619  -18.1036   18.0395 H   0  0  0  0  0  0  0  0  0  0  0  0
  -15.0083  -18.1406   17.9005 H   0  0  0  0  0  0  0  0  0  0  0  0
  -17.0177  -16.1954   20.4362 H   0  0  0  0  0  0  0  0  0  0  0  0
  -15.4013  -19.1701   24.0147 H   0  0  0  0  0  0  0  0  0  0  0  0
  -14.0695  -21.2138   23.5202 H   0  0  0  0  0  0  0  0  0  0  0  0
  -13.4616  -21.7399   21.1710 H   0  0  0  0  0  0  0  0  0  0  0  0
  -14.1597  -20.2586   19.2952 H   0  0  0  0  0  0  0  0  0  0  0  0
  -15.0078  -13.9357   16.7914 H   0  0  0  0  0  0  0  0  0  0  0  0
  -15.1257  -15.4697   13.3745 H   0  0  0  0  0  0  0  0  0  0  0  0
  -14.0652  -14.5406   11.3580 H   0  0  0  0  0  0  0  0  0  0  0  0
   -9.1866  -10.1421   12.2983 H   0  0  0  0  0  0  0  0  0  0  0  0
   -9.2593  -11.8927   12.0281 H   0  0  0  0  0  0  0  0  0  0  0  0
   -7.2695  -10.9150   10.9177 H   0  0  0  0  0  0  0  0  0  0  0  0
   -8.2901   -9.8520    9.9507 H   0  0  0  0  0  0  0  0  0  0  0  0
   -9.9603  -13.1197    9.7471 H   0  0  0  0  0  0  0  0  0  0  0  0
   -9.7853  -12.4670    8.1142 H   0  0  0  0  0  0  0  0  0  0  0  0
  -11.7401  -11.3651    9.1535 H   0  0  0  0  0  0  0  0  0  0  0  0
  -10.4526  -10.1940    8.9525 H   0  0  0  0  0  0  0  0  0  0  0  0
  -13.8247  -12.0117   15.6042 H   0  0  0  0  0  0  0  0  0  0  0  0
  1  2  2  0
  2  3  1  0
  3  4  1  0
  4  5  1  0
  5  6  1  0
  6  7  2  0
  7  8  1  0
  8  9  2  0
  9 10  1  0
 10 11  2  0
 11 12  1  0
 12 13  2  0
  2 14  1  0
 14 15  1  0
 15 16  2  0
 16 17  1  0
 17 18  2  0
 18 19  1  0
 19 20  2  0
 20 21  1  0
 21 22  1  0
 22 23  1  0
 23 24  1  0
 24 25  1  0
 25 26  1  0
 20 27  1  0
 27 28  1  0
 28 29  2  0
 13  5  1  0
 29 15  1  0
 13  8  1  0
 28 18  1  0
 26 21  1  0
  3 30  1  0
  3 31  1  0
  4 32  1  0
  4 33  1  0
  6 34  1  0
  9 35  1  0
 10 36  1  0
 11 37  1  0
 12 38  1  0
 14 39  1  0
 16 40  1  0
 17 41  1  0
 22 42  1  0
 22 43  1  0
 23 44  1  0
 23 45  1  0
 25 46  1  0
 25 47  1  0
 26 48  1  0
 26 49  1  0
 29 50  1  0
M  END
>  <Energy>  (564) 
71.140908338108673

>  <compound_id>  (564) 
32695

>  <target_id>  (564) 
1

>  <reference_id>  (564) 
69

>  <inspiration_ids>  (564) 
[69, 52]

>  <energy_score>  (564) 
-63.47589512951322

>  <distance_score>  (564) 
14.481088248074919

>  <path>  (564) 
/opt/xchem-fragalysis-2/maxwin/BulkDock/SCRATCH/511015/C32695-P69/C32695-P69.minimised.mol

>  <scratch_subdir>  (564) 
/opt/xchem-fragalysis-2/maxwin/BulkDock/SCRATCH/511015/C32695-P69

>  <fragmenstein_runtime>  (564) 
80.78033399581909

>  <fragmenstein_outcome>  (564) 
too moved

>  <fragmenstein_mode>  (564) 
expansion

>  <fragmenstein_error>  (564) 


$$$$
C32695-P52
     RDKit          3D

 50 54  0  0  0  0  0  0  0  0999 V2000
   -9.8635   -6.5299   15.0989 O   0  0  0  0  0  0  0  0  0  0  0  0
  -10.3179   -5.4373   15.3304 C   0  0  0  0  0  0  0  0  0  0  0  0
  -11.5854   -5.4101   16.3525 C   0  0  0  0  0  0  0  0  0  0  0  0
  -12.2499   -6.8600   16.7017 C   0  0  0  0  0  0  0  0  0  0  0  0
  -13.2406   -7.0791   17.8026 N   0  0  0  0  0  0  0  0  0  0  0  0
  -13.4488   -6.2554   18.8847 C   0  0  0  0  0  0  0  0  0  0  0  0
  -14.2341   -6.7734   19.8042 N   0  0  0  0  0  0  0  0  0  0  0  0
  -14.7260   -7.9218   19.2468 C   0  0  0  0  0  0  0  0  0  0  0  0
  -15.7314   -8.7842   19.7486 C   0  0  0  0  0  0  0  0  0  0  0  0
  -16.1667   -9.8630   18.9717 C   0  0  0  0  0  0  0  0  0  0  0  0
  -15.5868  -10.0800   17.7176 C   0  0  0  0  0  0  0  0  0  0  0  0
  -14.5551   -9.2445   17.2116 C   0  0  0  0  0  0  0  0  0  0  0  0
  -14.1443   -8.1409   17.9855 C   0  0  0  0  0  0  0  0  0  0  0  0
   -9.8788   -4.0758   14.8604 N   0  0  0  0  0  0  0  0  0  0  0  0
   -8.8371   -3.6820   13.9123 C   0  0  0  0  0  0  0  0  0  0  0  0
   -8.0062   -4.5645   13.3833 C   0  0  0  0  0  0  0  0  0  0  0  0
   -7.2561   -4.0081   12.3714 C   0  0  0  0  0  0  0  0  0  0  0  0
   -7.3432   -2.4978   11.7228 C   0  0  0  0  0  0  0  0  0  0  0  0
   -6.8038   -1.5951    9.9843 N   0  0  0  0  0  0  0  0  0  0  0  0
   -6.0594   -1.5030    8.3372 C   0  0  0  0  0  0  0  0  0  0  0  0
   -5.0275   -2.5749    7.0159 N   0  0  0  0  0  0  0  0  0  0  0  0
   -4.9175   -4.1721    5.9479 C   0  0  0  0  0  0  0  0  0  0  0  0
   -3.5208   -5.5244    5.3278 C   0  0  0  0  0  0  0  0  0  0  0  0
   -1.4625   -5.6738    6.0087 O   0  0  0  0  0  0  0  0  0  0  0  0
   -1.0775   -3.6400    6.6385 C   0  0  0  0  0  0  0  0  0  0  0  0
   -3.1054   -2.6185    6.3289 C   0  0  0  0  0  0  0  0  0  0  0  0
   -7.7522   -0.9982    9.8994 S   0  0  0  0  0  0  0  0  0  0  0  0
   -7.6556   -1.3587   12.1878 C   0  0  0  0  0  0  0  0  0  0  0  0
   -8.5429   -2.3305   13.4037 C   0  0  0  0  0  0  0  0  0  0  0  0
  -12.3590   -4.7653   15.9229 H   0  0  0  0  0  0  0  0  0  0  0  0
  -11.2243   -4.9561   17.2815 H   0  0  0  0  0  0  0  0  0  0  0  0
  -11.4385   -7.5601   16.9355 H   0  0  0  0  0  0  0  0  0  0  0  0
  -12.7449   -7.2207   15.7921 H   0  0  0  0  0  0  0  0  0  0  0  0
  -12.9764   -5.2878   18.9699 H   0  0  0  0  0  0  0  0  0  0  0  0
  -16.1722   -8.5765   20.7151 H   0  0  0  0  0  0  0  0  0  0  0  0
  -16.9376  -10.5283   19.3437 H   0  0  0  0  0  0  0  0  0  0  0  0
  -15.9098  -10.9286   17.1182 H   0  0  0  0  0  0  0  0  0  0  0  0
  -14.1117   -9.4510   16.2436 H   0  0  0  0  0  0  0  0  0  0  0  0
  -10.4405   -3.3685   15.3167 H   0  0  0  0  0  0  0  0  0  0  0  0
   -7.9513   -5.6113   13.6403 H   0  0  0  0  0  0  0  0  0  0  0  0
   -6.6209   -4.7468   11.8811 H   0  0  0  0  0  0  0  0  0  0  0  0
   -5.8029   -4.8187    5.9680 H   0  0  0  0  0  0  0  0  0  0  0  0
   -5.3251   -3.6620    5.0832 H   0  0  0  0  0  0  0  0  0  0  0  0
   -4.2728   -6.1897    5.8765 H   0  0  0  0  0  0  0  0  0  0  0  0
   -3.7531   -6.3475    4.5683 H   0  0  0  0  0  0  0  0  0  0  0  0
   -0.0728   -4.0509    6.2890 H   0  0  0  0  0  0  0  0  0  0  0  0
   -0.4761   -2.9698    5.8944 H   0  0  0  0  0  0  0  0  0  0  0  0
   -3.3259   -2.4737    5.2656 H   0  0  0  0  0  0  0  0  0  0  0  0
   -3.1393   -1.6096    6.7462 H   0  0  0  0  0  0  0  0  0  0  0  0
   -9.1445   -1.6997   14.0616 H   0  0  0  0  0  0  0  0  0  0  0  0
  1  2  2  0
  2  3  1  0
  3  4  1  0
  4  5  1  0
  5  6  1  0
  6  7  2  0
  7  8  1  0
  8  9  2  0
  9 10  1  0
 10 11  2  0
 11 12  1  0
 12 13  2  0
  2 14  1  0
 14 15  1  0
 15 16  2  0
 16 17  1  0
 17 18  2  0
 18 19  1  0
 19 20  2  0
 20 21  1  0
 21 22  1  0
 22 23  1  0
 23 24  1  0
 24 25  1  0
 25 26  1  0
 20 27  1  0
 27 28  1  0
 28 29  2  0
 13  5  1  0
 29 15  1  0
 13  8  1  0
 28 18  1  0
 26 21  1  0
  3 30  1  0
  3 31  1  0
  4 32  1  0
  4 33  1  0
  6 34  1  0
  9 35  1  0
 10 36  1  0
 11 37  1  0
 12 38  1  0
 14 39  1  0
 16 40  1  0
 17 41  1  0
 22 42  1  0
 22 43  1  0
 23 44  1  0
 23 45  1  0
 25 46  1  0
 25 47  1  0
 26 48  1  0
 26 49  1  0
 29 50  1  0
M  END
>  <Energy>  (565) 
2035.1040727538182

>  <compound_id>  (565) 
32695

>  <target_id>  (565) 
1

>  <reference_id>  (565) 
52

>  <inspiration_ids>  (565) 
[69, 52]

>  <energy_score>  (565) 
1900.4872692862316

>  <distance_score>  (565) 
14.495496214663891

>  <path>  (565) 
/opt/xchem-fragalysis-2/maxwin/BulkDock/SCRATCH/511015/C32695-P52/C32695-P52.minimised.mol

>  <scratch_subdir>  (565) 
/opt/xchem-fragalysis-2/maxwin/BulkDock/SCRATCH/511015/C32695-P52

>  <fragmenstein_runtime>  (565) 
39.779749155044556

>  <fragmenstein_outcome>  (565) 
too moved

>  <fragmenstein_mode>  (565) 
expansion

>  <fragmenstein_error>  (565) 


$$$$
C32696-P69
     RDKit          3D

 31 34  0  0  0  0  0  0  0  0999 V2000
   -0.1463  -10.8676   22.8286 O   0  0  0  0  0  0  0  0  0  0  0  0
   -1.2286  -10.3546   22.9086 C   0  0  0  0  0  0  0  0  0  0  0  0
   -2.2670  -10.4487   23.9765 N   0  0  0  0  0  0  0  0  0  0  0  0
   -2.3167  -11.2468   25.1646 N   0  0  0  0  0  0  0  0  0  0  0  0
   -1.1904  -11.4607   25.9179 C   0  0  0  0  0  0  0  0  0  0  0  0
   -1.3422  -12.3910   26.8358 N   0  0  0  0  0  0  0  0  0  0  0  0
   -2.6242  -12.8397   26.7054 C   0  0  0  0  0  0  0  0  0  0  0  0
   -3.2505  -13.8731   27.4454 C   0  0  0  0  0  0  0  0  0  0  0  0
   -4.5744  -14.2092   27.1903 C   0  0  0  0  0  0  0  0  0  0  0  0
   -5.2632  -13.5022   26.2160 C   0  0  0  0  0  0  0  0  0  0  0  0
   -4.6572  -12.4594   25.4659 C   0  0  0  0  0  0  0  0  0  0  0  0
   -3.3015  -12.1293   25.6923 C   0  0  0  0  0  0  0  0  0  0  0  0
   -1.5924   -9.5192   21.6327 C   0  0  0  0  0  0  0  0  0  0  0  0
   -1.5833   -8.1931   21.4970 N   0  0  0  0  0  0  0  0  0  0  0  0
   -1.6507   -7.7911   20.1200 C   0  0  0  0  0  0  0  0  0  0  0  0
   -1.7350   -6.4656   19.6032 C   0  0  0  0  0  0  0  0  0  0  0  0
   -1.9518   -6.2228   18.2320 C   0  0  0  0  0  0  0  0  0  0  0  0
   -2.0498   -7.2845   17.3446 C   0  0  0  0  0  0  0  0  0  0  0  0
   -1.9260   -8.6006   17.8118 C   0  0  0  0  0  0  0  0  0  0  0  0
   -1.7444   -8.8361   19.2007 C   0  0  0  0  0  0  0  0  0  0  0  0
   -1.6417  -10.3349   20.0755 S   0  0  0  0  0  0  0  0  0  0  0  0
   -3.0277   -9.8185   23.7571 H   0  0  0  0  0  0  0  0  0  0  0  0
   -0.2690  -10.9240   25.7306 H   0  0  0  0  0  0  0  0  0  0  0  0
   -2.6808  -14.3951   28.2083 H   0  0  0  0  0  0  0  0  0  0  0  0
   -5.0574  -15.0042   27.7502 H   0  0  0  0  0  0  0  0  0  0  0  0
   -6.2990  -13.7659   26.0205 H   0  0  0  0  0  0  0  0  0  0  0  0
   -5.2516  -11.9454   24.7216 H   0  0  0  0  0  0  0  0  0  0  0  0
   -1.6771   -5.6329   20.2991 H   0  0  0  0  0  0  0  0  0  0  0  0
   -2.0386   -5.1994   17.8754 H   0  0  0  0  0  0  0  0  0  0  0  0
   -2.2113   -7.1003   16.2853 H   0  0  0  0  0  0  0  0  0  0  0  0
   -2.0005   -9.4374   17.1221 H   0  0  0  0  0  0  0  0  0  0  0  0
  1  2  2  0
  2  3  1  0
  3  4  1  0
  4  5  1  0
  5  6  2  0
  6  7  1  0
  7  8  2  0
  8  9  1  0
  9 10  2  0
 10 11  1  0
 11 12  2  0
  2 13  1  0
 13 14  2  0
 14 15  1  0
 15 16  2  0
 16 17  1  0
 17 18  2  0
 18 19  1  0
 19 20  2  0
 20 21  1  0
 12  4  1  0
 21 13  1  0
 12  7  1  0
 20 15  1  0
  3 22  1  0
  5 23  1  0
  8 24  1  0
  9 25  1  0
 10 26  1  0
 11 27  1  0
 16 28  1  0
 17 29  1  0
 18 30  1  0
 19 31  1  0
M  END
>  <Energy>  (566) 
80.236755160964549

>  <compound_id>  (566) 
32696

>  <target_id>  (566) 
1

>  <reference_id>  (566) 
69

>  <inspiration_ids>  (566) 
[69, 52]

>  <energy_score>  (566) 
-27.795078136673965

>  <distance_score>  (566) 
14.78020223517691

>  <path>  (566) 
/opt/xchem-fragalysis-2/maxwin/BulkDock/SCRATCH/511015/C32696-P69/C32696-P69.minimised.mol

>  <scratch_subdir>  (566) 
/opt/xchem-fragalysis-2/maxwin/BulkDock/SCRATCH/511015/C32696-P69

>  <fragmenstein_runtime>  (566) 
19.571099519729614

>  <fragmenstein_outcome>  (566) 
too moved

>  <fragmenstein_mode>  (566) 
expansion

>  <fragmenstein_error>  (566) 


$$$$
C32696-P52
     RDKit          3D

 31 34  0  0  0  0  0  0  0  0999 V2000
   -5.6867  -11.6756   18.9803 O   0  0  0  0  0  0  0  0  0  0  0  0
   -6.8960  -11.5357   19.4197 C   0  0  0  0  0  0  0  0  0  0  0  0
   -7.3810  -11.8489   21.2169 N   0  0  0  0  0  0  0  0  0  0  0  0
   -6.3937  -12.5259   22.6976 N   0  0  0  0  0  0  0  0  0  0  0  0
   -6.8023  -11.4305   24.0088 C   0  0  0  0  0  0  0  0  0  0  0  0
   -7.1988  -11.9709   25.2287 N   0  0  0  0  0  0  0  0  0  0  0  0
   -7.5598  -13.5256   25.1502 C   0  0  0  0  0  0  0  0  0  0  0  0
   -8.0252  -14.3855   26.1854 C   0  0  0  0  0  0  0  0  0  0  0  0
   -7.8711  -15.7642   26.1028 C   0  0  0  0  0  0  0  0  0  0  0  0
   -7.0548  -16.2678   25.1123 C   0  0  0  0  0  0  0  0  0  0  0  0
   -6.5484  -15.4339   24.0790 C   0  0  0  0  0  0  0  0  0  0  0  0
   -7.0951  -14.0475   23.6276 C   0  0  0  0  0  0  0  0  0  0  0  0
   -8.0970  -11.1228   17.9103 C   0  0  0  0  0  0  0  0  0  0  0  0
   -7.4889  -11.1992   16.5817 N   0  0  0  0  0  0  0  0  0  0  0  0
   -7.1742   -9.8950   15.5471 C   0  0  0  0  0  0  0  0  0  0  0  0
   -6.2443   -9.7519   14.4716 C   0  0  0  0  0  0  0  0  0  0  0  0
   -6.0468   -8.5339   13.7756 C   0  0  0  0  0  0  0  0  0  0  0  0
   -6.6735   -7.3663   14.1806 C   0  0  0  0  0  0  0  0  0  0  0  0
   -7.5225   -7.3983   15.2824 C   0  0  0  0  0  0  0  0  0  0  0  0
   -7.8129   -8.6734   15.8858 C   0  0  0  0  0  0  0  0  0  0  0  0
   -9.0111   -9.0678   17.6609 S   0  0  0  0  0  0  0  0  0  0  0  0
   -8.3554  -11.5940   21.3433 H   0  0  0  0  0  0  0  0  0  0  0  0
   -7.0918  -10.4862   23.6024 H   0  0  0  0  0  0  0  0  0  0  0  0
   -8.4091  -13.9316   27.0949 H   0  0  0  0  0  0  0  0  0  0  0  0
   -8.2011  -16.3996   26.9194 H   0  0  0  0  0  0  0  0  0  0  0  0
   -6.6719  -17.2840   25.1978 H   0  0  0  0  0  0  0  0  0  0  0  0
   -5.6150  -15.7970   23.6342 H   0  0  0  0  0  0  0  0  0  0  0  0
   -5.6104  -10.5764   14.1908 H   0  0  0  0  0  0  0  0  0  0  0  0
   -5.3388   -8.5098   12.9495 H   0  0  0  0  0  0  0  0  0  0  0  0
   -6.4650   -6.4250   13.6777 H   0  0  0  0  0  0  0  0  0  0  0  0
   -7.9687   -6.4857   15.6655 H   0  0  0  0  0  0  0  0  0  0  0  0
  1  2  2  0
  2  3  1  0
  3  4  1  0
  4  5  1  0
  5  6  2  0
  6  7  1  0
  7  8  2  0
  8  9  1  0
  9 10  2  0
 10 11  1  0
 11 12  2  0
  2 13  1  0
 13 14  2  0
 14 15  1  0
 15 16  2  0
 16 17  1  0
 17 18  2  0
 18 19  1  0
 19 20  2  0
 20 21  1  0
 12  4  1  0
 21 13  1  0
 12  7  1  0
 20 15  1  0
  3 22  1  0
  5 23  1  0
  8 24  1  0
  9 25  1  0
 10 26  1  0
 11 27  1  0
 16 28  1  0
 17 29  1  0
 18 30  1  0
 19 31  1  0
M  END
>  <Energy>  (567) 
616.92914790965301

>  <compound_id>  (567) 
32696

>  <target_id>  (567) 
1

>  <reference_id>  (567) 
52

>  <inspiration_ids>  (567) 
[69, 52]

>  <energy_score>  (567) 
508.89731461202655

>  <distance_score>  (567) 
12.242779296411822

>  <path>  (567) 
/opt/xchem-fragalysis-2/maxwin/BulkDock/SCRATCH/511015/C32696-P52/C32696-P52.minimised.mol

>  <scratch_subdir>  (567) 
/opt/xchem-fragalysis-2/maxwin/BulkDock/SCRATCH/511015/C32696-P52

>  <fragmenstein_runtime>  (567) 
18.557780027389526

>  <fragmenstein_outcome>  (567) 
too moved

>  <fragmenstein_mode>  (567) 
expansion

>  <fragmenstein_error>  (567) 


$$$$
C32697-P69
     RDKit          3D

 50 53  0  0  0  0  0  0  0  0999 V2000
   -3.2763   -3.2844    8.6003 C   0  0  0  0  0  0  0  0  0  0  0  0
   -3.7751   -4.9759    9.6824 C   0  0  0  0  0  0  0  0  0  0  0  0
   -3.6852   -5.0978    8.1390 C   0  0  0  0  0  0  0  0  0  0  0  0
   -4.9216   -6.0251   11.1950 C   0  0  0  0  0  0  0  0  0  0  0  0
   -5.5518   -6.9168   10.6834 O   0  0  0  0  0  0  0  0  0  0  0  0
   -5.1048   -5.5936   13.0162 N   0  0  0  0  0  0  0  0  0  0  0  0
   -6.2017   -6.2032   14.2657 C   0  0  0  0  0  0  0  0  0  0  0  0
   -6.1256   -6.6384   15.7160 N   0  0  0  0  0  0  0  0  0  0  0  0
   -7.1800   -6.1143   17.0597 C   0  0  0  0  0  0  0  0  0  0  0  0
   -7.9755   -6.6672   18.6371 C   0  0  0  0  0  0  0  0  0  0  0  0
   -9.5158   -6.5709   19.5235 C   0  0  0  0  0  0  0  0  0  0  0  0
  -10.5498   -8.1499   20.0493 N   0  0  0  0  0  0  0  0  0  0  0  0
  -11.1728   -8.8349   21.8896 C   0  0  0  0  0  0  0  0  0  0  0  0
  -11.0348   -8.1781   22.9375 O   0  0  0  0  0  0  0  0  0  0  0  0
  -11.8948  -10.8836   22.3964 C   0  0  0  0  0  0  0  0  0  0  0  0
  -11.1989  -12.9904   22.2865 C   0  0  0  0  0  0  0  0  0  0  0  0
  -11.3711  -14.8780   23.1376 N   0  0  0  0  0  0  0  0  0  0  0  0
  -12.4899  -15.9466   23.2198 C   0  0  0  0  0  0  0  0  0  0  0  0
  -12.4229  -16.9160   24.1729 N   0  0  0  0  0  0  0  0  0  0  0  0
  -11.1118  -17.2597   24.6866 C   0  0  0  0  0  0  0  0  0  0  0  0
  -10.0560  -17.0774   26.1239 C   0  0  0  0  0  0  0  0  0  0  0  0
   -8.7420  -17.3921   26.4824 C   0  0  0  0  0  0  0  0  0  0  0  0
   -8.0590  -17.5006   25.3904 C   0  0  0  0  0  0  0  0  0  0  0  0
   -8.8067  -16.8605   24.4160 C   0  0  0  0  0  0  0  0  0  0  0  0
  -10.5506  -16.4085   23.9250 C   0  0  0  0  0  0  0  0  0  0  0  0
   -9.6750   -5.3391   18.7319 C   0  0  0  0  0  0  0  0  0  0  0  0
   -9.0195   -4.6299   17.3756 C   0  0  0  0  0  0  0  0  0  0  0  0
   -7.9359   -5.1003   16.4860 C   0  0  0  0  0  0  0  0  0  0  0  0
   -7.3777   -4.6219   14.8443 S   0  0  0  0  0  0  0  0  0  0  0  0
   -4.1615   -2.8053    8.0350 H   0  0  0  0  0  0  0  0  0  0  0  0
   -3.0032   -2.3504    9.0795 H   0  0  0  0  0  0  0  0  0  0  0  0
   -2.7555   -3.3085    7.6307 H   0  0  0  0  0  0  0  0  0  0  0  0
   -2.9167   -5.5744    9.7959 H   0  0  0  0  0  0  0  0  0  0  0  0
   -2.9247   -5.0668    7.3343 H   0  0  0  0  0  0  0  0  0  0  0  0
   -3.6784   -6.1097    8.3047 H   0  0  0  0  0  0  0  0  0  0  0  0
   -4.3372   -4.4605    7.4802 H   0  0  0  0  0  0  0  0  0  0  0  0
   -4.4543   -4.9078   13.2531 H   0  0  0  0  0  0  0  0  0  0  0  0
   -7.3224   -5.9991   19.2624 H   0  0  0  0  0  0  0  0  0  0  0  0
  -10.8356   -8.7980   19.3315 H   0  0  0  0  0  0  0  0  0  0  0  0
  -12.9794  -10.9095   22.3514 H   0  0  0  0  0  0  0  0  0  0  0  0
  -11.5592  -10.8744   23.4660 H   0  0  0  0  0  0  0  0  0  0  0  0
  -11.4925  -13.3614   21.3331 H   0  0  0  0  0  0  0  0  0  0  0  0
  -10.1986  -12.9811   21.7642 H   0  0  0  0  0  0  0  0  0  0  0  0
  -13.2363  -15.9697   22.4328 H   0  0  0  0  0  0  0  0  0  0  0  0
  -10.3397  -16.2728   26.8475 H   0  0  0  0  0  0  0  0  0  0  0  0
   -8.2827  -17.3312   27.4540 H   0  0  0  0  0  0  0  0  0  0  0  0
   -6.9991  -17.6955   25.3143 H   0  0  0  0  0  0  0  0  0  0  0  0
   -8.0507  -16.9329   23.5472 H   0  0  0  0  0  0  0  0  0  0  0  0
  -10.2500   -4.5345   19.2327 H   0  0  0  0  0  0  0  0  0  0  0  0
   -9.5365   -3.7072   17.0897 H   0  0  0  0  0  0  0  0  0  0  0  0
  1  2  1  0
  2  3  1  0
  2  4  1  0
  4  5  2  0
  4  6  1  0
  6  7  1  0
  7  8  2  0
  8  9  1  0
  9 10  2  0
 10 11  1  0
 11 12  1  0
 12 13  1  0
 13 14  2  0
 13 15  1  0
 15 16  1  0
 16 17  1  0
 17 18  1  0
 18 19  2  0
 19 20  1  0
 20 21  2  0
 21 22  1  0
 22 23  2  0
 23 24  1  0
 24 25  2  0
 11 26  2  0
 26 27  1  0
 27 28  2  0
 28 29  1  0
 29  7  1  0
 28  9  1  0
 25 17  1  0
 25 20  1  0
  1 30  1  0
  1 31  1  0
  1 32  1  0
  2 33  1  0
  3 34  1  0
  3 35  1  0
  3 36  1  0
  6 37  1  0
 10 38  1  0
 12 39  1  0
 15 40  1  0
 15 41  1  0
 16 42  1  0
 16 43  1  0
 18 44  1  0
 21 45  1  0
 22 46  1  0
 23 47  1  0
 24 48  1  0
 26 49  1  0
 27 50  1  0
M  END
>  <Energy>  (568) 
2015.6746110942338

>  <compound_id>  (568) 
32697

>  <target_id>  (568) 
1

>  <reference_id>  (568) 
69

>  <inspiration_ids>  (568) 
[69, 52]

>  <energy_score>  (568) 
1988.8850645656253

>  <distance_score>  (568) 
10.749525624829058

>  <path>  (568) 
/opt/xchem-fragalysis-2/maxwin/BulkDock/SCRATCH/511015/C32697-P69/C32697-P69.minimised.mol

>  <scratch_subdir>  (568) 
/opt/xchem-fragalysis-2/maxwin/BulkDock/SCRATCH/511015/C32697-P69

>  <fragmenstein_runtime>  (568) 
79.714031457901

>  <fragmenstein_outcome>  (568) 
too moved

>  <fragmenstein_mode>  (568) 
expansion

>  <fragmenstein_error>  (568) 


$$$$
C32697-P52
     RDKit          3D

 50 53  0  0  0  0  0  0  0  0999 V2000
   -4.0278   -1.6472    5.3280 C   0  0  0  0  0  0  0  0  0  0  0  0
   -3.3385   -2.3471    6.3352 C   0  0  0  0  0  0  0  0  0  0  0  0
   -1.2057   -2.7231    6.7892 C   0  0  0  0  0  0  0  0  0  0  0  0
   -5.0902   -3.2693    6.5944 C   0  0  0  0  0  0  0  0  0  0  0  0
   -4.9586   -4.4894    6.3080 O   0  0  0  0  0  0  0  0  0  0  0  0
   -6.7045   -2.5106    7.3981 N   0  0  0  0  0  0  0  0  0  0  0  0
   -8.4182   -3.4043    8.1676 C   0  0  0  0  0  0  0  0  0  0  0  0
   -8.3578   -5.1579    9.2087 N   0  0  0  0  0  0  0  0  0  0  0  0
   -9.1661   -5.7894   11.1114 C   0  0  0  0  0  0  0  0  0  0  0  0
   -9.7492   -7.0496   12.7050 C   0  0  0  0  0  0  0  0  0  0  0  0
  -10.8493   -8.7377   13.2302 C   0  0  0  0  0  0  0  0  0  0  0  0
  -11.0180  -10.6271   14.3372 N   0  0  0  0  0  0  0  0  0  0  0  0
  -11.3856  -11.2070   16.5142 C   0  0  0  0  0  0  0  0  0  0  0  0
  -11.6670  -10.1863   17.2554 O   0  0  0  0  0  0  0  0  0  0  0  0
  -11.1858  -12.8936   17.9008 C   0  0  0  0  0  0  0  0  0  0  0  0
  -11.5474  -13.3703   20.1518 C   0  0  0  0  0  0  0  0  0  0  0  0
  -11.6631  -14.5152   21.8805 N   0  0  0  0  0  0  0  0  0  0  0  0
  -12.6920  -15.9336   21.7179 C   0  0  0  0  0  0  0  0  0  0  0  0
  -13.2236  -16.4623   22.8295 N   0  0  0  0  0  0  0  0  0  0  0  0
  -12.3421  -16.1824   23.7251 C   0  0  0  0  0  0  0  0  0  0  0  0
  -11.2687  -16.5506   24.6042 C   0  0  0  0  0  0  0  0  0  0  0  0
  -10.9525  -15.7884   25.7779 C   0  0  0  0  0  0  0  0  0  0  0  0
  -11.8738  -14.8394   26.1329 C   0  0  0  0  0  0  0  0  0  0  0  0
  -12.6953  -14.4033   25.0713 C   0  0  0  0  0  0  0  0  0  0  0  0
  -12.5629  -14.8926   23.4699 C   0  0  0  0  0  0  0  0  0  0  0  0
  -11.5655   -7.0606   12.9256 C   0  0  0  0  0  0  0  0  0  0  0  0
  -11.1424   -5.3171   12.2594 C   0  0  0  0  0  0  0  0  0  0  0  0
   -9.8167   -4.3075   11.4825 C   0  0  0  0  0  0  0  0  0  0  0  0
   -9.6167   -2.2050   10.1178 S   0  0  0  0  0  0  0  0  0  0  0  0
   -5.0759   -1.8293    5.0805 H   0  0  0  0  0  0  0  0  0  0  0  0
   -3.3905   -2.2332    4.7251 H   0  0  0  0  0  0  0  0  0  0  0  0
   -3.9306   -0.6156    5.6070 H   0  0  0  0  0  0  0  0  0  0  0  0
   -3.4657   -1.5806    7.0732 H   0  0  0  0  0  0  0  0  0  0  0  0
   -0.8355   -2.0520    7.6258 H   0  0  0  0  0  0  0  0  0  0  0  0
   -0.6386   -3.6634    6.5363 H   0  0  0  0  0  0  0  0  0  0  0  0
   -0.4223   -2.5102    5.9421 H   0  0  0  0  0  0  0  0  0  0  0  0
   -6.6086   -1.5019    7.4582 H   0  0  0  0  0  0  0  0  0  0  0  0
   -8.7052   -7.2378   13.1003 H   0  0  0  0  0  0  0  0  0  0  0  0
  -10.7131  -11.4746   13.8123 H   0  0  0  0  0  0  0  0  0  0  0  0
  -11.0723  -13.6767   17.2866 H   0  0  0  0  0  0  0  0  0  0  0  0
  -10.0691  -12.7573   18.0166 H   0  0  0  0  0  0  0  0  0  0  0  0
  -10.4469  -13.0453   20.4671 H   0  0  0  0  0  0  0  0  0  0  0  0
  -11.6759  -12.5569   20.8905 H   0  0  0  0  0  0  0  0  0  0  0  0
  -13.0718  -16.0079   20.6982 H   0  0  0  0  0  0  0  0  0  0  0  0
  -10.6645  -17.4051   24.3574 H   0  0  0  0  0  0  0  0  0  0  0  0
  -10.1241  -16.0277   26.4352 H   0  0  0  0  0  0  0  0  0  0  0  0
  -11.8423  -14.3073   27.0775 H   0  0  0  0  0  0  0  0  0  0  0  0
  -13.1245  -13.4189   25.2726 H   0  0  0  0  0  0  0  0  0  0  0  0
  -12.6238   -7.0316   13.2656 H   0  0  0  0  0  0  0  0  0  0  0  0
  -12.0501   -4.6906   12.3417 H   0  0  0  0  0  0  0  0  0  0  0  0
  1  2  1  0
  2  3  1  0
  2  4  1  0
  4  5  2  0
  4  6  1  0
  6  7  1  0
  7  8  2  0
  8  9  1  0
  9 10  2  0
 10 11  1  0
 11 12  1  0
 12 13  1  0
 13 14  2  0
 13 15  1  0
 15 16  1  0
 16 17  1  0
 17 18  1  0
 18 19  2  0
 19 20  1  0
 20 21  2  0
 21 22  1  0
 22 23  2  0
 23 24  1  0
 24 25  2  0
 11 26  2  0
 26 27  1  0
 27 28  2  0
 28 29  1  0
 29  7  1  0
 28  9  1  0
 25 17  1  0
 25 20  1  0
  1 30  1  0
  1 31  1  0
  1 32  1  0
  2 33  1  0
  3 34  1  0
  3 35  1  0
  3 36  1  0
  6 37  1  0
 10 38  1  0
 12 39  1  0
 15 40  1  0
 15 41  1  0
 16 42  1  0
 16 43  1  0
 18 44  1  0
 21 45  1  0
 22 46  1  0
 23 47  1  0
 24 48  1  0
 26 49  1  0
 27 50  1  0
M  END
>  <Energy>  (569) 
3846.2323228913797

>  <compound_id>  (569) 
32697

>  <target_id>  (569) 
1

>  <reference_id>  (569) 
52

>  <inspiration_ids>  (569) 
[69, 52]

>  <energy_score>  (569) 
3819.4427763627345

>  <distance_score>  (569) 
9.697425169107794

>  <path>  (569) 
/opt/xchem-fragalysis-2/maxwin/BulkDock/SCRATCH/511015/C32697-P52/C32697-P52.minimised.mol

>  <scratch_subdir>  (569) 
/opt/xchem-fragalysis-2/maxwin/BulkDock/SCRATCH/511015/C32697-P52

>  <fragmenstein_runtime>  (569) 
35.28864026069641

>  <fragmenstein_outcome>  (569) 
too moved

>  <fragmenstein_mode>  (569) 
expansion

>  <fragmenstein_error>  (569) 


$$$$
C32698-P69
     RDKit          3D

 35 38  0  0  0  0  0  0  0  0999 V2000
   -9.1019  -11.2210   23.2042 O   0  0  0  0  0  0  0  0  0  0  0  0
   -9.4294  -12.2605   22.6311 C   0  0  0  0  0  0  0  0  0  0  0  0
   -9.9286  -13.2784   23.6615 C   0  0  0  0  0  0  0  0  0  0  0  0
  -10.3859  -12.8688   25.0614 N   0  0  0  0  0  0  0  0  0  0  0  0
  -11.7082  -12.7325   25.4212 C   0  0  0  0  0  0  0  0  0  0  0  0
  -11.8811  -12.7468   26.7236 N   0  0  0  0  0  0  0  0  0  0  0  0
  -10.6280  -12.8856   27.2591 C   0  0  0  0  0  0  0  0  0  0  0  0
  -10.2264  -12.8563   28.6072 C   0  0  0  0  0  0  0  0  0  0  0  0
   -8.8729  -13.0510   28.9170 C   0  0  0  0  0  0  0  0  0  0  0  0
   -7.9553  -13.3450   27.9061 C   0  0  0  0  0  0  0  0  0  0  0  0
   -8.3378  -13.3636   26.5539 C   0  0  0  0  0  0  0  0  0  0  0  0
   -9.6790  -13.0727   26.2506 C   0  0  0  0  0  0  0  0  0  0  0  0
   -9.5143  -12.6178   20.8535 N   0  0  0  0  0  0  0  0  0  0  0  0
   -9.2722  -11.4794   19.3933 C   0  0  0  0  0  0  0  0  0  0  0  0
   -8.8219   -9.8226   19.4362 N   0  0  0  0  0  0  0  0  0  0  0  0
   -9.6668   -8.3165   19.8251 C   0  0  0  0  0  0  0  0  0  0  0  0
   -9.3897   -6.9502   19.9653 C   0  0  0  0  0  0  0  0  0  0  0  0
  -10.4770   -6.0796   19.8151 C   0  0  0  0  0  0  0  0  0  0  0  0
  -10.1922   -4.7436   19.9462 O   0  0  0  0  0  0  0  0  0  0  0  0
  -11.8037   -6.4897   19.5534 C   0  0  0  0  0  0  0  0  0  0  0  0
  -12.1882   -7.8370   19.3509 C   0  0  0  0  0  0  0  0  0  0  0  0
  -11.1574   -8.8340   19.3374 C   0  0  0  0  0  0  0  0  0  0  0  0
  -10.9298  -10.9289   18.3635 S   0  0  0  0  0  0  0  0  0  0  0  0
  -10.8928  -13.6421   23.2792 H   0  0  0  0  0  0  0  0  0  0  0  0
   -9.1520  -13.9244   24.0493 H   0  0  0  0  0  0  0  0  0  0  0  0
  -12.5029  -12.6348   24.6924 H   0  0  0  0  0  0  0  0  0  0  0  0
  -10.9597  -12.6757   29.3859 H   0  0  0  0  0  0  0  0  0  0  0  0
   -8.5483  -13.0107   29.9540 H   0  0  0  0  0  0  0  0  0  0  0  0
   -6.9123  -13.5149   28.1677 H   0  0  0  0  0  0  0  0  0  0  0  0
   -7.5913  -13.5094   25.7805 H   0  0  0  0  0  0  0  0  0  0  0  0
   -9.7324  -13.5604   20.7034 H   0  0  0  0  0  0  0  0  0  0  0  0
   -8.3808   -6.5797   20.0945 H   0  0  0  0  0  0  0  0  0  0  0  0
  -10.9864   -4.2249   19.7357 H   0  0  0  0  0  0  0  0  0  0  0  0
  -12.5874   -5.7365   19.4741 H   0  0  0  0  0  0  0  0  0  0  0  0
  -13.2061   -8.0841   19.0622 H   0  0  0  0  0  0  0  0  0  0  0  0
  1  2  2  0
  2  3  1  0
  3  4  1  0
  4  5  1  0
  5  6  2  0
  6  7  1  0
  7  8  2  0
  8  9  1  0
  9 10  2  0
 10 11  1  0
 11 12  2  0
  2 13  1  0
 13 14  1  0
 14 15  2  0
 15 16  1  0
 16 17  2  0
 17 18  1  0
 18 19  1  0
 18 20  2  0
 20 21  1  0
 21 22  2  0
 22 23  1  0
 12  4  1  0
 23 14  1  0
 12  7  1  0
 22 16  1  0
  3 24  1  0
  3 25  1  0
  5 26  1  0
  8 27  1  0
  9 28  1  0
 10 29  1  0
 11 30  1  0
 13 31  1  0
 17 32  1  0
 19 33  1  0
 20 34  1  0
 21 35  1  0
M  END
>  <Energy>  (570) 
417.97247852095478

>  <compound_id>  (570) 
32698

>  <target_id>  (570) 
1

>  <reference_id>  (570) 
69

>  <inspiration_ids>  (570) 
[69, 52]

>  <energy_score>  (570) 
378.6457952591079

>  <distance_score>  (570) 
13.051765781799395

>  <path>  (570) 
/opt/xchem-fragalysis-2/maxwin/BulkDock/SCRATCH/511015/C32698-P69/C32698-P69.minimised.mol

>  <scratch_subdir>  (570) 
/opt/xchem-fragalysis-2/maxwin/BulkDock/SCRATCH/511015/C32698-P69

>  <fragmenstein_runtime>  (570) 
18.13546919822693

>  <fragmenstein_outcome>  (570) 
too moved

>  <fragmenstein_mode>  (570) 
expansion

>  <fragmenstein_error>  (570) 


$$$$
C32698-P52
     RDKit          3D

 35 38  0  0  0  0  0  0  0  0999 V2000
   -4.8225   -9.6247   23.4723 O   0  0  0  0  0  0  0  0  0  0  0  0
   -4.3410  -10.5864   22.9273 C   0  0  0  0  0  0  0  0  0  0  0  0
   -4.2446  -11.9240   23.8403 C   0  0  0  0  0  0  0  0  0  0  0  0
   -5.4538  -12.6197   24.4126 N   0  0  0  0  0  0  0  0  0  0  0  0
   -6.7598  -12.1992   24.3330 C   0  0  0  0  0  0  0  0  0  0  0  0
   -7.5981  -12.9739   24.9957 N   0  0  0  0  0  0  0  0  0  0  0  0
   -6.8262  -13.9416   25.5849 C   0  0  0  0  0  0  0  0  0  0  0  0
   -7.2214  -14.9940   26.4454 C   0  0  0  0  0  0  0  0  0  0  0  0
   -6.2595  -15.8795   26.9392 C   0  0  0  0  0  0  0  0  0  0  0  0
   -4.9256  -15.7187   26.5687 C   0  0  0  0  0  0  0  0  0  0  0  0
   -4.5105  -14.6698   25.7147 C   0  0  0  0  0  0  0  0  0  0  0  0
   -5.4806  -13.7716   25.2292 C   0  0  0  0  0  0  0  0  0  0  0  0
   -3.7267  -10.7277   21.5824 N   0  0  0  0  0  0  0  0  0  0  0  0
   -3.4434   -9.7673   20.5911 C   0  0  0  0  0  0  0  0  0  0  0  0
   -3.1811  -10.0451   19.3186 N   0  0  0  0  0  0  0  0  0  0  0  0
   -3.1064   -8.8764   18.5162 C   0  0  0  0  0  0  0  0  0  0  0  0
   -3.0306   -8.7963   17.0975 C   0  0  0  0  0  0  0  0  0  0  0  0
   -3.1229   -7.5548   16.4514 C   0  0  0  0  0  0  0  0  0  0  0  0
   -3.0952   -7.5471   15.0878 O   0  0  0  0  0  0  0  0  0  0  0  0
   -3.2383   -6.3772   17.1748 C   0  0  0  0  0  0  0  0  0  0  0  0
   -3.2587   -6.4224   18.5781 C   0  0  0  0  0  0  0  0  0  0  0  0
   -3.2086   -7.6807   19.2312 C   0  0  0  0  0  0  0  0  0  0  0  0
   -3.3354   -8.0776   20.9380 S   0  0  0  0  0  0  0  0  0  0  0  0
   -3.7012  -11.6003   24.7403 H   0  0  0  0  0  0  0  0  0  0  0  0
   -3.6096  -12.6853   23.3873 H   0  0  0  0  0  0  0  0  0  0  0  0
   -7.0466  -11.3110   23.7834 H   0  0  0  0  0  0  0  0  0  0  0  0
   -8.2660  -15.0944   26.7184 H   0  0  0  0  0  0  0  0  0  0  0  0
   -6.5479  -16.6843   27.6096 H   0  0  0  0  0  0  0  0  0  0  0  0
   -4.1783  -16.4103   26.9545 H   0  0  0  0  0  0  0  0  0  0  0  0
   -3.4622  -14.5624   25.4547 H   0  0  0  0  0  0  0  0  0  0  0  0
   -3.5012  -11.7068   21.4184 H   0  0  0  0  0  0  0  0  0  0  0  0
   -2.9608   -9.7116   16.5175 H   0  0  0  0  0  0  0  0  0  0  0  0
   -3.2276   -6.6369   14.7712 H   0  0  0  0  0  0  0  0  0  0  0  0
   -3.3029   -5.4146   16.6757 H   0  0  0  0  0  0  0  0  0  0  0  0
   -3.3507   -5.5089   19.1587 H   0  0  0  0  0  0  0  0  0  0  0  0
  1  2  2  0
  2  3  1  0
  3  4  1  0
  4  5  1  0
  5  6  2  0
  6  7  1  0
  7  8  2  0
  8  9  1  0
  9 10  2  0
 10 11  1  0
 11 12  2  0
  2 13  1  0
 13 14  1  0
 14 15  2  0
 15 16  1  0
 16 17  2  0
 17 18  1  0
 18 19  1  0
 18 20  2  0
 20 21  1  0
 21 22  2  0
 22 23  1  0
 12  4  1  0
 23 14  1  0
 12  7  1  0
 22 16  1  0
  3 24  1  0
  3 25  1  0
  5 26  1  0
  8 27  1  0
  9 28  1  0
 10 29  1  0
 11 30  1  0
 13 31  1  0
 17 32  1  0
 19 33  1  0
 20 34  1  0
 21 35  1  0
M  END
>  <Energy>  (571) 
16.49732809580869

>  <compound_id>  (571) 
32698

>  <target_id>  (571) 
1

>  <reference_id>  (571) 
52

>  <inspiration_ids>  (571) 
[69, 52]

>  <energy_score>  (571) 
-22.829355166026232

>  <distance_score>  (571) 
13.406143970715775

>  <path>  (571) 
/opt/xchem-fragalysis-2/maxwin/BulkDock/SCRATCH/511015/C32698-P52/C32698-P52.minimised.mol

>  <scratch_subdir>  (571) 
/opt/xchem-fragalysis-2/maxwin/BulkDock/SCRATCH/511015/C32698-P52

>  <fragmenstein_runtime>  (571) 
35.873048543930054

>  <fragmenstein_outcome>  (571) 
too moved

>  <fragmenstein_mode>  (571) 
expansion

>  <fragmenstein_error>  (571) 


$$$$
C32699-P69
     RDKit          3D

 50 53  0  0  0  0  0  0  0  0999 V2000
  -12.2152  -15.6643   20.5927 O   0  0  0  0  0  0  0  0  0  0  0  0
  -11.1792  -15.9566   20.0399 C   0  0  0  0  0  0  0  0  0  0  0  0
  -10.2688  -14.3189   19.1595 C   0  0  0  0  0  0  0  0  0  0  0  0
  -10.3914  -12.6074   17.9467 C   0  0  0  0  0  0  0  0  0  0  0  0
  -11.1408  -11.5494   18.4583 O   0  0  0  0  0  0  0  0  0  0  0  0
  -10.9913  -11.7928   16.1808 C   0  0  0  0  0  0  0  0  0  0  0  0
  -10.0412  -11.0847   15.1163 N   0  0  0  0  0  0  0  0  0  0  0  0
  -10.3998   -9.5215   14.4386 C   0  0  0  0  0  0  0  0  0  0  0  0
   -9.5972   -8.3129   14.3656 C   0  0  0  0  0  0  0  0  0  0  0  0
  -10.2595   -6.6199   14.4500 C   0  0  0  0  0  0  0  0  0  0  0  0
  -11.6689   -6.5465   14.2443 C   0  0  0  0  0  0  0  0  0  0  0  0
  -12.4338   -7.9110   13.9417 C   0  0  0  0  0  0  0  0  0  0  0  0
  -11.9540   -9.2993   14.2961 C   0  0  0  0  0  0  0  0  0  0  0  0
  -12.8768  -10.5539   15.9159 S   0  0  0  0  0  0  0  0  0  0  0  0
   -8.8722  -12.3934   18.4367 C   0  0  0  0  0  0  0  0  0  0  0  0
   -7.9683  -12.1053   17.5349 F   0  0  0  0  0  0  0  0  0  0  0  0
   -9.1468  -11.4330   19.2976 F   0  0  0  0  0  0  0  0  0  0  0  0
   -8.2438  -13.2605   19.2329 F   0  0  0  0  0  0  0  0  0  0  0  0
  -10.4485  -17.3912   19.9513 N   0  0  0  0  0  0  0  0  0  0  0  0
  -10.9559  -18.9542   20.5017 C   0  0  0  0  0  0  0  0  0  0  0  0
  -10.3055  -20.0009   21.8317 C   0  0  0  0  0  0  0  0  0  0  0  0
  -10.8844  -21.6198   22.5059 C   0  0  0  0  0  0  0  0  0  0  0  0
  -11.6074  -22.0481   23.8123 N   0  0  0  0  0  0  0  0  0  0  0  0
  -12.0871  -20.9836   24.4697 C   0  0  0  0  0  0  0  0  0  0  0  0
  -11.8686  -21.0231   25.7500 N   0  0  0  0  0  0  0  0  0  0  0  0
  -11.7626  -22.3109   26.1212 C   0  0  0  0  0  0  0  0  0  0  0  0
  -11.5119  -22.7567   27.4532 C   0  0  0  0  0  0  0  0  0  0  0  0
  -11.0891  -24.0500   27.6891 C   0  0  0  0  0  0  0  0  0  0  0  0
  -10.9694  -24.8734   26.5953 C   0  0  0  0  0  0  0  0  0  0  0  0
  -11.1856  -24.3935   25.2727 C   0  0  0  0  0  0  0  0  0  0  0  0
  -11.5577  -23.0651   24.9391 C   0  0  0  0  0  0  0  0  0  0  0  0
   -9.2943  -14.9667   19.1885 H   0  0  0  0  0  0  0  0  0  0  0  0
   -9.9636  -13.5757   19.8517 H   0  0  0  0  0  0  0  0  0  0  0  0
  -10.5473  -10.8959   18.8700 H   0  0  0  0  0  0  0  0  0  0  0  0
   -8.5278   -8.5009   14.2361 H   0  0  0  0  0  0  0  0  0  0  0  0
   -9.5709   -5.7772   14.4816 H   0  0  0  0  0  0  0  0  0  0  0  0
  -12.1448   -5.5898   14.0367 H   0  0  0  0  0  0  0  0  0  0  0  0
  -13.4476   -7.8535   13.5357 H   0  0  0  0  0  0  0  0  0  0  0  0
   -9.5521  -17.2834   19.4847 H   0  0  0  0  0  0  0  0  0  0  0  0
  -10.8787  -19.5607   19.5931 H   0  0  0  0  0  0  0  0  0  0  0  0
  -11.9990  -18.7515   20.7055 H   0  0  0  0  0  0  0  0  0  0  0  0
   -9.9531  -19.3900   22.6581 H   0  0  0  0  0  0  0  0  0  0  0  0
   -9.3719  -20.3264   21.3448 H   0  0  0  0  0  0  0  0  0  0  0  0
  -11.4987  -22.0422   21.7085 H   0  0  0  0  0  0  0  0  0  0  0  0
   -9.9155  -22.0992   22.6662 H   0  0  0  0  0  0  0  0  0  0  0  0
  -12.3703  -20.1258   23.9435 H   0  0  0  0  0  0  0  0  0  0  0  0
  -11.5947  -22.0361   28.2589 H   0  0  0  0  0  0  0  0  0  0  0  0
  -10.8755  -24.4006   28.6918 H   0  0  0  0  0  0  0  0  0  0  0  0
  -10.6753  -25.9139   26.7327 H   0  0  0  0  0  0  0  0  0  0  0  0
  -11.0592  -25.1606   24.5597 H   0  0  0  0  0  0  0  0  0  0  0  0
  1  2  2  0
  2  3  1  0
  3  4  1  0
  4  5  1  0
  4  6  1  0
  6  7  2  0
  7  8  1  0
  8  9  2  0
  9 10  1  0
 10 11  2  0
 11 12  1  0
 12 13  2  0
 13 14  1  0
  4 15  1  0
 15 16  1  0
 15 17  1  0
 15 18  1  0
  2 19  1  0
 19 20  1  0
 20 21  1  0
 21 22  1  0
 22 23  1  0
 23 24  1  0
 24 25  2  0
 25 26  1  0
 26 27  2  0
 27 28  1  0
 28 29  2  0
 29 30  1  0
 30 31  2  0
 14  6  1  0
 31 23  1  0
 13  8  1  0
 31 26  1  0
  3 32  1  0
  3 33  1  0
  5 34  1  0
  9 35  1  0
 10 36  1  0
 11 37  1  0
 12 38  1  0
 19 39  1  0
 20 40  1  0
 20 41  1  0
 21 42  1  0
 21 43  1  0
 22 44  1  0
 22 45  1  0
 24 46  1  0
 27 47  1  0
 28 48  1  0
 29 49  1  0
 30 50  1  0
M  END
>  <Energy>  (572) 
879.57800245126077

>  <compound_id>  (572) 
32699

>  <target_id>  (572) 
1

>  <reference_id>  (572) 
69

>  <inspiration_ids>  (572) 
[69, 52]

>  <energy_score>  (572) 
758.0831221509359

>  <distance_score>  (572) 
9.567016944738121

>  <path>  (572) 
/opt/xchem-fragalysis-2/maxwin/BulkDock/SCRATCH/511015/C32699-P69/C32699-P69.minimised.mol

>  <scratch_subdir>  (572) 
/opt/xchem-fragalysis-2/maxwin/BulkDock/SCRATCH/511015/C32699-P69

>  <fragmenstein_runtime>  (572) 
37.524495124816895

>  <fragmenstein_outcome>  (572) 
too moved

>  <fragmenstein_mode>  (572) 
expansion

>  <fragmenstein_error>  (572) 


$$$$
C32699-P52
     RDKit          3D

 50 53  0  0  0  0  0  0  0  0999 V2000
   -8.0899  -19.0211   12.5232 O   0  0  0  0  0  0  0  0  0  0  0  0
   -7.9125  -18.0671   13.2318 C   0  0  0  0  0  0  0  0  0  0  0  0
   -8.0211  -16.6763   12.5148 C   0  0  0  0  0  0  0  0  0  0  0  0
   -7.1680  -16.4786   11.1983 C   0  0  0  0  0  0  0  0  0  0  0  0
   -7.9103  -17.1304   10.1275 O   0  0  0  0  0  0  0  0  0  0  0  0
   -7.0803  -14.9518   10.7565 C   0  0  0  0  0  0  0  0  0  0  0  0
   -7.8875  -13.9870   11.1738 N   0  0  0  0  0  0  0  0  0  0  0  0
   -7.5514  -12.7492   10.6071 C   0  0  0  0  0  0  0  0  0  0  0  0
   -8.1674  -11.5194   10.8906 C   0  0  0  0  0  0  0  0  0  0  0  0
   -7.6488  -10.3532   10.3296 C   0  0  0  0  0  0  0  0  0  0  0  0
   -6.5737  -10.3717    9.4569 C   0  0  0  0  0  0  0  0  0  0  0  0
   -5.9736  -11.5831    9.1276 C   0  0  0  0  0  0  0  0  0  0  0  0
   -6.4699  -12.7582    9.7298 C   0  0  0  0  0  0  0  0  0  0  0  0
   -5.9239  -14.3816    9.5782 S   0  0  0  0  0  0  0  0  0  0  0  0
   -5.7582  -17.1222   11.3365 C   0  0  0  0  0  0  0  0  0  0  0  0
   -4.9791  -16.9640   10.2432 F   0  0  0  0  0  0  0  0  0  0  0  0
   -5.8325  -18.4614   11.5243 F   0  0  0  0  0  0  0  0  0  0  0  0
   -5.0747  -16.6294   12.3904 F   0  0  0  0  0  0  0  0  0  0  0  0
   -7.7058  -17.9791   14.6814 N   0  0  0  0  0  0  0  0  0  0  0  0
   -7.7495  -19.0245   15.7335 C   0  0  0  0  0  0  0  0  0  0  0  0
   -7.7573  -18.5904   17.2480 C   0  0  0  0  0  0  0  0  0  0  0  0
   -8.3562  -19.6754   18.1852 C   0  0  0  0  0  0  0  0  0  0  0  0
   -7.8600  -19.7681   19.5519 N   0  0  0  0  0  0  0  0  0  0  0  0
   -6.5573  -20.0468   19.8802 C   0  0  0  0  0  0  0  0  0  0  0  0
   -6.4608  -20.7217   21.0016 N   0  0  0  0  0  0  0  0  0  0  0  0
   -7.7497  -20.8768   21.4163 C   0  0  0  0  0  0  0  0  0  0  0  0
   -8.2547  -21.6718   22.4318 C   0  0  0  0  0  0  0  0  0  0  0  0
   -9.6184  -21.5473   22.7265 C   0  0  0  0  0  0  0  0  0  0  0  0
  -10.4396  -20.6762   22.0516 C   0  0  0  0  0  0  0  0  0  0  0  0
   -9.9824  -19.9881   20.9391 C   0  0  0  0  0  0  0  0  0  0  0  0
   -8.6283  -20.1289   20.6371 C   0  0  0  0  0  0  0  0  0  0  0  0
   -7.9273  -15.8688   13.2298 H   0  0  0  0  0  0  0  0  0  0  0  0
   -9.0823  -16.6156   12.2244 H   0  0  0  0  0  0  0  0  0  0  0  0
   -8.0127  -18.0692   10.3905 H   0  0  0  0  0  0  0  0  0  0  0  0
   -9.0067  -11.4800   11.5769 H   0  0  0  0  0  0  0  0  0  0  0  0
   -8.0915   -9.4185   10.6126 H   0  0  0  0  0  0  0  0  0  0  0  0
   -6.1875   -9.4464    9.0412 H   0  0  0  0  0  0  0  0  0  0  0  0
   -5.1267  -11.6143    8.4484 H   0  0  0  0  0  0  0  0  0  0  0  0
   -7.6717  -17.0029   14.9530 H   0  0  0  0  0  0  0  0  0  0  0  0
   -6.9020  -19.6934   15.5474 H   0  0  0  0  0  0  0  0  0  0  0  0
   -8.6563  -19.6033   15.5221 H   0  0  0  0  0  0  0  0  0  0  0  0
   -6.7288  -18.3432   17.5334 H   0  0  0  0  0  0  0  0  0  0  0  0
   -8.3372  -17.6674   17.3626 H   0  0  0  0  0  0  0  0  0  0  0  0
   -8.1728  -20.6676   17.7515 H   0  0  0  0  0  0  0  0  0  0  0  0
   -9.4431  -19.5421   18.2224 H   0  0  0  0  0  0  0  0  0  0  0  0
   -5.7275  -19.8091   19.2278 H   0  0  0  0  0  0  0  0  0  0  0  0
   -7.6150  -22.3566   22.9712 H   0  0  0  0  0  0  0  0  0  0  0  0
  -10.0643  -22.1806   23.4846 H   0  0  0  0  0  0  0  0  0  0  0  0
  -11.4566  -20.5855   22.3945 H   0  0  0  0  0  0  0  0  0  0  0  0
  -10.6557  -19.3987   20.3302 H   0  0  0  0  0  0  0  0  0  0  0  0
  1  2  2  0
  2  3  1  0
  3  4  1  0
  4  5  1  0
  4  6  1  0
  6  7  2  0
  7  8  1  0
  8  9  2  0
  9 10  1  0
 10 11  2  0
 11 12  1  0
 12 13  2  0
 13 14  1  0
  4 15  1  0
 15 16  1  0
 15 17  1  0
 15 18  1  0
  2 19  1  0
 19 20  1  0
 20 21  1  0
 21 22  1  0
 22 23  1  0
 23 24  1  0
 24 25  2  0
 25 26  1  0
 26 27  2  0
 27 28  1  0
 28 29  2  0
 29 30  1  0
 30 31  2  0
 14  6  1  0
 31 23  1  0
 13  8  1  0
 31 26  1  0
  3 32  1  0
  3 33  1  0
  5 34  1  0
  9 35  1  0
 10 36  1  0
 11 37  1  0
 12 38  1  0
 19 39  1  0
 20 40  1  0
 20 41  1  0
 21 42  1  0
 21 43  1  0
 22 44  1  0
 22 45  1  0
 24 46  1  0
 27 47  1  0
 28 48  1  0
 29 49  1  0
 30 50  1  0
M  END
>  <Energy>  (573) 
88.535865884113534

>  <compound_id>  (573) 
32699

>  <target_id>  (573) 
1

>  <reference_id>  (573) 
52

>  <inspiration_ids>  (573) 
[69, 52]

>  <energy_score>  (573) 
-32.959014416209584

>  <distance_score>  (573) 
12.510440100858588

>  <path>  (573) 
/opt/xchem-fragalysis-2/maxwin/BulkDock/SCRATCH/511015/C32699-P52/C32699-P52.minimised.mol

>  <scratch_subdir>  (573) 
/opt/xchem-fragalysis-2/maxwin/BulkDock/SCRATCH/511015/C32699-P52

>  <fragmenstein_runtime>  (573) 
71.59554600715637

>  <fragmenstein_outcome>  (573) 
too moved

>  <fragmenstein_mode>  (573) 
expansion

>  <fragmenstein_error>  (573) 


$$$$
C32700-P69
     RDKit          3D

 45 48  0  0  0  0  0  0  0  0999 V2000
   -9.3452   -0.2377   19.5084 C   0  0  0  0  0  0  0  0  0  0  0  0
   -9.7991   -1.1052   18.3684 C   0  0  0  0  0  0  0  0  0  0  0  0
  -10.5081   -0.5125   17.2979 C   0  0  0  0  0  0  0  0  0  0  0  0
  -10.9732   -1.2628   16.2228 C   0  0  0  0  0  0  0  0  0  0  0  0
  -10.6997   -2.6220   16.1559 C   0  0  0  0  0  0  0  0  0  0  0  0
  -10.0631   -3.2145   17.2600 C   0  0  0  0  0  0  0  0  0  0  0  0
   -9.7286   -4.8488   17.5089 S   0  0  0  0  0  0  0  0  0  0  0  0
   -9.2276   -4.6043   19.2163 C   0  0  0  0  0  0  0  0  0  0  0  0
   -9.0647   -5.9229   20.0238 N   0  0  0  0  0  0  0  0  0  0  0  0
   -7.8749   -6.4056   21.4196 C   0  0  0  0  0  0  0  0  0  0  0  0
   -6.9237   -5.8276   21.9182 O   0  0  0  0  0  0  0  0  0  0  0  0
   -8.4741   -7.4729   21.7125 N   0  0  0  0  0  0  0  0  0  0  0  0
   -8.3064   -8.7430   23.2236 C   0  0  0  0  0  0  0  0  0  0  0  0
   -7.3988  -10.6282   23.3374 C   0  0  0  0  0  0  0  0  0  0  0  0
   -6.1221  -11.9298   24.1721 C   0  0  0  0  0  0  0  0  0  0  0  0
   -5.9542  -13.8484   24.0278 N   0  0  0  0  0  0  0  0  0  0  0  0
   -4.5511  -14.6948   23.9440 C   0  0  0  0  0  0  0  0  0  0  0  0
   -4.5034  -15.9737   24.2803 N   0  0  0  0  0  0  0  0  0  0  0  0
   -5.6757  -16.3201   24.9044 C   0  0  0  0  0  0  0  0  0  0  0  0
   -5.7198  -17.4141   25.8197 C   0  0  0  0  0  0  0  0  0  0  0  0
   -6.5544  -17.3768   26.9282 C   0  0  0  0  0  0  0  0  0  0  0  0
   -7.3942  -16.2883   27.0741 C   0  0  0  0  0  0  0  0  0  0  0  0
   -7.5463  -15.2927   26.0691 C   0  0  0  0  0  0  0  0  0  0  0  0
   -6.7213  -15.2876   24.8331 C   0  0  0  0  0  0  0  0  0  0  0  0
   -9.1094   -3.2998   19.4343 N   0  0  0  0  0  0  0  0  0  0  0  0
   -9.6309   -2.5122   18.3739 C   0  0  0  0  0  0  0  0  0  0  0  0
  -10.2079    0.0839   20.1000 H   0  0  0  0  0  0  0  0  0  0  0  0
   -8.8221    0.6460   19.1286 H   0  0  0  0  0  0  0  0  0  0  0  0
   -8.6548   -0.7736   20.1673 H   0  0  0  0  0  0  0  0  0  0  0  0
  -10.6956    0.5604   17.3123 H   0  0  0  0  0  0  0  0  0  0  0  0
  -11.5131   -0.7761   15.4143 H   0  0  0  0  0  0  0  0  0  0  0  0
  -11.0243   -3.2176   15.3096 H   0  0  0  0  0  0  0  0  0  0  0  0
   -9.7007   -6.6704   19.7974 H   0  0  0  0  0  0  0  0  0  0  0  0
   -9.2104   -7.6647   20.9522 H   0  0  0  0  0  0  0  0  0  0  0  0
   -9.3599   -9.1014   23.1293 H   0  0  0  0  0  0  0  0  0  0  0  0
   -8.4560   -7.9760   23.9065 H   0  0  0  0  0  0  0  0  0  0  0  0
   -8.1848  -11.2208   22.8866 H   0  0  0  0  0  0  0  0  0  0  0  0
   -6.8242  -10.9034   22.4777 H   0  0  0  0  0  0  0  0  0  0  0  0
   -5.0777  -11.7672   24.0934 H   0  0  0  0  0  0  0  0  0  0  0  0
   -6.4392  -11.8799   25.2380 H   0  0  0  0  0  0  0  0  0  0  0  0
   -3.6444  -14.1135   23.9122 H   0  0  0  0  0  0  0  0  0  0  0  0
   -4.9256  -18.1540   25.7653 H   0  0  0  0  0  0  0  0  0  0  0  0
   -6.4556  -18.1198   27.7145 H   0  0  0  0  0  0  0  0  0  0  0  0
   -7.8696  -16.1492   28.0325 H   0  0  0  0  0  0  0  0  0  0  0  0
   -8.0339  -14.3871   26.3988 H   0  0  0  0  0  0  0  0  0  0  0  0
  1  2  1  0
  2  3  2  0
  3  4  1  0
  4  5  2  0
  5  6  1  0
  6  7  1  0
  7  8  1  0
  8  9  1  0
  9 10  1  0
 10 11  2  0
 10 12  1  0
 12 13  1  0
 13 14  1  0
 14 15  1  0
 15 16  1  0
 16 17  1  0
 17 18  2  0
 18 19  1  0
 19 20  2  0
 20 21  1  0
 21 22  2  0
 22 23  1  0
 23 24  2  0
  8 25  2  0
 25 26  1  0
 26  2  1  0
 26  6  2  0
 24 16  1  0
 24 19  1  0
  1 27  1  0
  1 28  1  0
  1 29  1  0
  3 30  1  0
  4 31  1  0
  5 32  1  0
  9 33  1  0
 12 34  1  0
 13 35  1  0
 13 36  1  0
 14 37  1  0
 14 38  1  0
 15 39  1  0
 15 40  1  0
 17 41  1  0
 20 42  1  0
 21 43  1  0
 22 44  1  0
 23 45  1  0
M  END
>  <Energy>  (574) 
536.32217021915619

>  <compound_id>  (574) 
32700

>  <target_id>  (574) 
1

>  <reference_id>  (574) 
69

>  <inspiration_ids>  (574) 
[69, 52]

>  <energy_score>  (574) 
524.6146695996981

>  <distance_score>  (574) 
11.43536529726472

>  <path>  (574) 
/opt/xchem-fragalysis-2/maxwin/BulkDock/SCRATCH/511015/C32700-P69/C32700-P69.minimised.mol

>  <scratch_subdir>  (574) 
/opt/xchem-fragalysis-2/maxwin/BulkDock/SCRATCH/511015/C32700-P69

>  <fragmenstein_runtime>  (574) 
35.04533100128174

>  <fragmenstein_outcome>  (574) 
too moved

>  <fragmenstein_mode>  (574) 
expansion

>  <fragmenstein_error>  (574) 


$$$$
C32700-P52
     RDKit          3D

 45 48  0  0  0  0  0  0  0  0999 V2000
   -6.6643   -6.4311   10.6024 C   0  0  0  0  0  0  0  0  0  0  0  0
   -6.9869   -7.3080   11.6900 C   0  0  0  0  0  0  0  0  0  0  0  0
   -7.0311   -8.6746   11.1748 C   0  0  0  0  0  0  0  0  0  0  0  0
   -7.9479   -9.5625   11.6555 C   0  0  0  0  0  0  0  0  0  0  0  0
   -8.8209   -9.0259   12.6001 C   0  0  0  0  0  0  0  0  0  0  0  0
   -8.6833   -7.5338   13.1214 C   0  0  0  0  0  0  0  0  0  0  0  0
   -9.6114   -6.0957   13.7844 S   0  0  0  0  0  0  0  0  0  0  0  0
   -8.2694   -6.3422   15.2581 C   0  0  0  0  0  0  0  0  0  0  0  0
   -8.5925   -7.2075   16.7032 N   0  0  0  0  0  0  0  0  0  0  0  0
   -9.9331   -7.0265   17.9272 C   0  0  0  0  0  0  0  0  0  0  0  0
  -10.7595   -6.2114   17.9515 O   0  0  0  0  0  0  0  0  0  0  0  0
   -9.6672   -8.1437   19.0270 N   0  0  0  0  0  0  0  0  0  0  0  0
  -10.5332   -8.4877   20.9366 C   0  0  0  0  0  0  0  0  0  0  0  0
  -10.3625  -10.0702   22.1937 C   0  0  0  0  0  0  0  0  0  0  0  0
  -11.2060  -10.5949   23.8933 C   0  0  0  0  0  0  0  0  0  0  0  0
  -11.5709  -11.8244   25.1164 N   0  0  0  0  0  0  0  0  0  0  0  0
  -12.8190  -12.3228   24.9961 C   0  0  0  0  0  0  0  0  0  0  0  0
  -13.1083  -13.4519   25.6304 N   0  0  0  0  0  0  0  0  0  0  0  0
  -12.1593  -13.6319   26.5402 C   0  0  0  0  0  0  0  0  0  0  0  0
  -12.1203  -14.6686   27.4853 C   0  0  0  0  0  0  0  0  0  0  0  0
  -10.9106  -15.0487   28.0346 C   0  0  0  0  0  0  0  0  0  0  0  0
   -9.7658  -14.3485   27.7115 C   0  0  0  0  0  0  0  0  0  0  0  0
   -9.8280  -13.2313   26.8527 C   0  0  0  0  0  0  0  0  0  0  0  0
  -11.0923  -12.7545   26.2661 C   0  0  0  0  0  0  0  0  0  0  0  0
   -7.2327   -6.2758   14.3595 N   0  0  0  0  0  0  0  0  0  0  0  0
   -7.6562   -6.7069   12.8648 C   0  0  0  0  0  0  0  0  0  0  0  0
   -6.0991   -5.7157   11.1612 H   0  0  0  0  0  0  0  0  0  0  0  0
   -6.2329   -6.9382    9.7478 H   0  0  0  0  0  0  0  0  0  0  0  0
   -7.5921   -6.1162   10.1886 H   0  0  0  0  0  0  0  0  0  0  0  0
   -6.4336   -8.9616   10.3079 H   0  0  0  0  0  0  0  0  0  0  0  0
   -8.0804  -10.5533   11.2398 H   0  0  0  0  0  0  0  0  0  0  0  0
   -9.7396   -9.5910   12.7942 H   0  0  0  0  0  0  0  0  0  0  0  0
   -8.0801   -8.0340   16.8736 H   0  0  0  0  0  0  0  0  0  0  0  0
   -8.9287   -8.7707   18.6918 H   0  0  0  0  0  0  0  0  0  0  0  0
   -9.9515   -7.8111   21.5505 H   0  0  0  0  0  0  0  0  0  0  0  0
  -11.6454   -8.3392   21.0782 H   0  0  0  0  0  0  0  0  0  0  0  0
   -9.2761  -10.0926   22.2212 H   0  0  0  0  0  0  0  0  0  0  0  0
  -10.5678  -11.0135   21.7046 H   0  0  0  0  0  0  0  0  0  0  0  0
  -10.2402  -10.7363   24.3427 H   0  0  0  0  0  0  0  0  0  0  0  0
  -11.7565  -11.2847   23.2504 H   0  0  0  0  0  0  0  0  0  0  0  0
  -13.5323  -11.8346   24.3630 H   0  0  0  0  0  0  0  0  0  0  0  0
  -13.0238  -15.2380   27.6787 H   0  0  0  0  0  0  0  0  0  0  0  0
  -10.8892  -15.9286   28.6593 H   0  0  0  0  0  0  0  0  0  0  0  0
   -8.8023  -14.6533   28.1095 H   0  0  0  0  0  0  0  0  0  0  0  0
   -8.8847  -12.7659   26.5873 H   0  0  0  0  0  0  0  0  0  0  0  0
  1  2  1  0
  2  3  2  0
  3  4  1  0
  4  5  2  0
  5  6  1  0
  6  7  1  0
  7  8  1  0
  8  9  1  0
  9 10  1  0
 10 11  2  0
 10 12  1  0
 12 13  1  0
 13 14  1  0
 14 15  1  0
 15 16  1  0
 16 17  1  0
 17 18  2  0
 18 19  1  0
 19 20  2  0
 20 21  1  0
 21 22  2  0
 22 23  1  0
 23 24  2  0
  8 25  2  0
 25 26  1  0
 26  2  1  0
 26  6  2  0
 24 16  1  0
 24 19  1  0
  1 27  1  0
  1 28  1  0
  1 29  1  0
  3 30  1  0
  4 31  1  0
  5 32  1  0
  9 33  1  0
 12 34  1  0
 13 35  1  0
 13 36  1  0
 14 37  1  0
 14 38  1  0
 15 39  1  0
 15 40  1  0
 17 41  1  0
 20 42  1  0
 21 43  1  0
 22 44  1  0
 23 45  1  0
M  END
>  <Energy>  (575) 
633.51196782513773

>  <compound_id>  (575) 
32700

>  <target_id>  (575) 
1

>  <reference_id>  (575) 
52

>  <inspiration_ids>  (575) 
[69, 52]

>  <energy_score>  (575) 
621.8044672056697

>  <distance_score>  (575) 
10.387120284138543

>  <path>  (575) 
/opt/xchem-fragalysis-2/maxwin/BulkDock/SCRATCH/511015/C32700-P52/C32700-P52.minimised.mol

>  <scratch_subdir>  (575) 
/opt/xchem-fragalysis-2/maxwin/BulkDock/SCRATCH/511015/C32700-P52

>  <fragmenstein_runtime>  (575) 
31.157915592193604

>  <fragmenstein_outcome>  (575) 
too moved

>  <fragmenstein_mode>  (575) 
expansion

>  <fragmenstein_error>  (575) 


$$$$
C32694-P69
     RDKit          3D

 37 40  0  0  0  0  0  0  0  0999 V2000
  -11.2651  -13.5336   21.7481 C   0  0  0  0  0  0  0  0  0  0  0  0
  -10.4761  -13.6466   19.8358 C   0  0  0  0  0  0  0  0  0  0  0  0
   -9.7660  -12.6221   18.3040 C   0  0  0  0  0  0  0  0  0  0  0  0
   -8.6019  -12.3780   18.5035 O   0  0  0  0  0  0  0  0  0  0  0  0
  -10.5460  -12.2215   16.6574 N   0  0  0  0  0  0  0  0  0  0  0  0
   -9.8062  -11.6228   15.1066 C   0  0  0  0  0  0  0  0  0  0  0  0
   -9.2371  -12.4230   14.1165 N   0  0  0  0  0  0  0  0  0  0  0  0
   -8.6077  -11.7209   12.9207 C   0  0  0  0  0  0  0  0  0  0  0  0
   -8.1747  -12.1096   11.5967 C   0  0  0  0  0  0  0  0  0  0  0  0
   -6.0328  -12.3832   11.3738 Br  0  0  0  0  0  0  0  0  0  0  0  0
   -8.3258  -11.1702   10.5565 C   0  0  0  0  0  0  0  0  0  0  0  0
   -7.8125   -9.9380   10.8672 C   0  0  0  0  0  0  0  0  0  0  0  0
   -7.6521   -9.6213   12.2181 C   0  0  0  0  0  0  0  0  0  0  0  0
   -8.3951  -10.3868   13.1323 C   0  0  0  0  0  0  0  0  0  0  0  0
   -9.2237   -9.9265   14.4997 S   0  0  0  0  0  0  0  0  0  0  0  0
  -11.3906  -15.5430   20.0615 N   0  0  0  0  0  0  0  0  0  0  0  0
  -13.0402  -15.3122   20.4961 C   0  0  0  0  0  0  0  0  0  0  0  0
  -13.3038  -15.4599   21.7541 N   0  0  0  0  0  0  0  0  0  0  0  0
  -12.9547  -16.7110   21.7178 C   0  0  0  0  0  0  0  0  0  0  0  0
  -13.8002  -17.7567   22.2288 C   0  0  0  0  0  0  0  0  0  0  0  0
  -13.5753  -19.0811   21.8879 C   0  0  0  0  0  0  0  0  0  0  0  0
  -12.5764  -19.3259   20.9744 C   0  0  0  0  0  0  0  0  0  0  0  0
  -11.8027  -18.2557   20.4346 C   0  0  0  0  0  0  0  0  0  0  0  0
  -11.7431  -16.8779   20.8946 C   0  0  0  0  0  0  0  0  0  0  0  0
  -12.1543  -12.9415   21.9397 H   0  0  0  0  0  0  0  0  0  0  0  0
  -11.5791  -14.4509   22.2405 H   0  0  0  0  0  0  0  0  0  0  0  0
  -10.4916  -13.1148   22.4468 H   0  0  0  0  0  0  0  0  0  0  0  0
   -9.5166  -14.2507   19.5687 H   0  0  0  0  0  0  0  0  0  0  0  0
  -11.4762  -12.5650   16.6505 H   0  0  0  0  0  0  0  0  0  0  0  0
   -8.3280  -11.5000    9.5201 H   0  0  0  0  0  0  0  0  0  0  0  0
   -7.4449   -9.2866   10.0821 H   0  0  0  0  0  0  0  0  0  0  0  0
   -7.1351   -8.7260   12.5231 H   0  0  0  0  0  0  0  0  0  0  0  0
  -13.7143  -14.9923   19.7035 H   0  0  0  0  0  0  0  0  0  0  0  0
  -14.6576  -17.4879   22.8394 H   0  0  0  0  0  0  0  0  0  0  0  0
  -14.2100  -19.8739   22.2682 H   0  0  0  0  0  0  0  0  0  0  0  0
  -12.4798  -20.3219   20.5467 H   0  0  0  0  0  0  0  0  0  0  0  0
  -11.5388  -18.4854   19.4081 H   0  0  0  0  0  0  0  0  0  0  0  0
  1  2  1  0
  2  3  1  0
  3  4  2  0
  3  5  1  0
  5  6  1  0
  6  7  2  0
  7  8  1  0
  8  9  2  0
  9 10  1  0
  9 11  1  0
 11 12  2  0
 12 13  1  0
 13 14  2  0
 14 15  1  0
  2 16  1  0
 16 17  1  0
 17 18  2  0
 18 19  1  0
 19 20  2  0
 20 21  1  0
 21 22  2  0
 22 23  1  0
 23 24  2  0
 15  6  1  0
 24 16  1  0
 14  8  1  0
 24 19  1  0
  1 25  1  0
  1 26  1  0
  1 27  1  0
  2 28  1  0
  5 29  1  0
 11 30  1  0
 12 31  1  0
 13 32  1  0
 17 33  1  0
 20 34  1  0
 21 35  1  0
 22 36  1  0
 23 37  1  0
M  END
>  <Energy>  (576) 
806.28329760253712

>  <compound_id>  (576) 
32694

>  <target_id>  (576) 
1

>  <reference_id>  (576) 
69

>  <inspiration_ids>  (576) 
[69, 52]

>  <energy_score>  (576) 
722.4994375814769

>  <distance_score>  (576) 
12.419855712856156

>  <path>  (576) 
/opt/xchem-fragalysis-2/maxwin/BulkDock/SCRATCH/511015/C32694-P69/C32694-P69.minimised.mol

>  <scratch_subdir>  (576) 
/opt/xchem-fragalysis-2/maxwin/BulkDock/SCRATCH/511015/C32694-P69

>  <fragmenstein_runtime>  (576) 
20.715383768081665

>  <fragmenstein_outcome>  (576) 
too moved

>  <fragmenstein_mode>  (576) 
expansion

>  <fragmenstein_error>  (576) 


$$$$
C32694-P52
     RDKit          3D

 37 40  0  0  0  0  0  0  0  0999 V2000
   -7.2831  -19.4678   20.8211 C   0  0  0  0  0  0  0  0  0  0  0  0
   -8.3145  -18.6575   21.5539 C   0  0  0  0  0  0  0  0  0  0  0  0
   -8.5251  -16.9052   21.6216 C   0  0  0  0  0  0  0  0  0  0  0  0
   -8.8585  -16.5751   22.7644 O   0  0  0  0  0  0  0  0  0  0  0  0
   -8.3844  -15.9074   20.0987 N   0  0  0  0  0  0  0  0  0  0  0  0
   -8.8280  -14.0505   19.7060 C   0  0  0  0  0  0  0  0  0  0  0  0
   -7.6925  -12.8554   19.6386 N   0  0  0  0  0  0  0  0  0  0  0  0
   -7.3605  -11.7880   21.2361 C   0  0  0  0  0  0  0  0  0  0  0  0
   -6.2085  -11.1574   21.9766 C   0  0  0  0  0  0  0  0  0  0  0  0
   -4.4491  -10.6489   21.3086 Br  0  0  0  0  0  0  0  0  0  0  0  0
   -6.4795  -10.3935   23.1440 C   0  0  0  0  0  0  0  0  0  0  0  0
   -7.7662  -10.1773   23.6288 C   0  0  0  0  0  0  0  0  0  0  0  0
   -8.8651  -10.7894   23.0499 C   0  0  0  0  0  0  0  0  0  0  0  0
   -8.6316  -11.6268   21.9496 C   0  0  0  0  0  0  0  0  0  0  0  0
  -10.1665  -12.6679   21.0025 S   0  0  0  0  0  0  0  0  0  0  0  0
   -9.8544  -19.4281   21.4890 N   0  0  0  0  0  0  0  0  0  0  0  0
  -10.9956  -18.8464   20.8804 C   0  0  0  0  0  0  0  0  0  0  0  0
  -12.0698  -19.5766   20.8155 N   0  0  0  0  0  0  0  0  0  0  0  0
  -11.8491  -20.4620   21.7901 C   0  0  0  0  0  0  0  0  0  0  0  0
  -12.8610  -21.1250   22.5089 C   0  0  0  0  0  0  0  0  0  0  0  0
  -12.5098  -21.8834   23.5894 C   0  0  0  0  0  0  0  0  0  0  0  0
  -11.1672  -22.1277   23.7487 C   0  0  0  0  0  0  0  0  0  0  0  0
  -10.1117  -21.5586   22.9386 C   0  0  0  0  0  0  0  0  0  0  0  0
  -10.4682  -20.5360   22.1010 C   0  0  0  0  0  0  0  0  0  0  0  0
   -6.7945  -20.1724   21.5042 H   0  0  0  0  0  0  0  0  0  0  0  0
   -7.7107  -20.0742   20.0178 H   0  0  0  0  0  0  0  0  0  0  0  0
   -6.5054  -18.8195   20.4068 H   0  0  0  0  0  0  0  0  0  0  0  0
   -8.1106  -18.8150   22.6003 H   0  0  0  0  0  0  0  0  0  0  0  0
   -8.0018  -16.4631   19.3472 H   0  0  0  0  0  0  0  0  0  0  0  0
   -5.6645   -9.8763   23.6538 H   0  0  0  0  0  0  0  0  0  0  0  0
   -7.9071   -9.5411   24.5017 H   0  0  0  0  0  0  0  0  0  0  0  0
   -9.8629  -10.6645   23.4576 H   0  0  0  0  0  0  0  0  0  0  0  0
  -11.0646  -17.8232   20.5413 H   0  0  0  0  0  0  0  0  0  0  0  0
  -13.9012  -20.9359   22.2677 H   0  0  0  0  0  0  0  0  0  0  0  0
  -13.2600  -22.3335   24.2287 H   0  0  0  0  0  0  0  0  0  0  0  0
  -10.9078  -22.8157   24.5580 H   0  0  0  0  0  0  0  0  0  0  0  0
   -9.0736  -21.8296   23.0830 H   0  0  0  0  0  0  0  0  0  0  0  0
  1  2  1  0
  2  3  1  0
  3  4  2  0
  3  5  1  0
  5  6  1  0
  6  7  2  0
  7  8  1  0
  8  9  2  0
  9 10  1  0
  9 11  1  0
 11 12  2  0
 12 13  1  0
 13 14  2  0
 14 15  1  0
  2 16  1  0
 16 17  1  0
 17 18  2  0
 18 19  1  0
 19 20  2  0
 20 21  1  0
 21 22  2  0
 22 23  1  0
 23 24  2  0
 15  6  1  0
 24 16  1  0
 14  8  1  0
 24 19  1  0
  1 25  1  0
  1 26  1  0
  1 27  1  0
  2 28  1  0
  5 29  1  0
 11 30  1  0
 12 31  1  0
 13 32  1  0
 17 33  1  0
 20 34  1  0
 21 35  1  0
 22 36  1  0
 23 37  1  0
M  END
>  <Energy>  (577) 
526.575883933505

>  <compound_id>  (577) 
32694

>  <target_id>  (577) 
1

>  <reference_id>  (577) 
52

>  <inspiration_ids>  (577) 
[69, 52]

>  <energy_score>  (577) 
442.79202391244405

>  <distance_score>  (577) 
14.17000232129006

>  <path>  (577) 
/opt/xchem-fragalysis-2/maxwin/BulkDock/SCRATCH/511015/C32694-P52/C32694-P52.minimised.mol

>  <scratch_subdir>  (577) 
/opt/xchem-fragalysis-2/maxwin/BulkDock/SCRATCH/511015/C32694-P52

>  <fragmenstein_runtime>  (577) 
16.600399494171143

>  <fragmenstein_outcome>  (577) 
too moved

>  <fragmenstein_mode>  (577) 
expansion

>  <fragmenstein_error>  (577) 


$$$$
C32701-P69
     RDKit          3D

 40 43  0  0  0  0  0  0  0  0999 V2000
   -6.9423   -9.1376   12.7169 C   0  0  0  0  0  0  0  0  0  0  0  0
   -6.6843   -7.6364   13.1409 C   0  0  0  0  0  0  0  0  0  0  0  0
   -5.8295   -6.9432   12.3169 C   0  0  0  0  0  0  0  0  0  0  0  0
   -5.7504   -5.6361   12.7630 C   0  0  0  0  0  0  0  0  0  0  0  0
   -6.4218   -4.8119   14.1568 C   0  0  0  0  0  0  0  0  0  0  0  0
   -7.2120   -5.5640   15.0915 C   0  0  0  0  0  0  0  0  0  0  0  0
   -7.1069   -5.6630   17.1527 S   0  0  0  0  0  0  0  0  0  0  0  0
   -7.0545   -7.4935   17.0590 C   0  0  0  0  0  0  0  0  0  0  0  0
   -7.4264   -9.0488   17.6507 N   0  0  0  0  0  0  0  0  0  0  0  0
   -8.5755   -9.6407   19.1380 C   0  0  0  0  0  0  0  0  0  0  0  0
   -9.0652   -8.7891   19.8331 O   0  0  0  0  0  0  0  0  0  0  0  0
   -9.1519  -11.7139   19.4666 C   0  0  0  0  0  0  0  0  0  0  0  0
   -9.6877  -12.8546   21.3139 C   0  0  0  0  0  0  0  0  0  0  0  0
  -11.0696  -13.9989   22.3324 N   0  0  0  0  0  0  0  0  0  0  0  0
  -11.8855  -15.5159   21.7692 C   0  0  0  0  0  0  0  0  0  0  0  0
  -12.4646  -16.2369   22.7326 N   0  0  0  0  0  0  0  0  0  0  0  0
  -11.6569  -16.1526   23.7919 C   0  0  0  0  0  0  0  0  0  0  0  0
  -10.5722  -16.9157   24.8790 C   0  0  0  0  0  0  0  0  0  0  0  0
  -10.0918  -16.1749   26.3190 C   0  0  0  0  0  0  0  0  0  0  0  0
  -11.1684  -15.1012   26.7417 C   0  0  0  0  0  0  0  0  0  0  0  0
  -12.3457  -14.7456   25.5807 C   0  0  0  0  0  0  0  0  0  0  0  0
  -11.9801  -14.8464   23.7833 C   0  0  0  0  0  0  0  0  0  0  0  0
   -7.0043   -7.5865   15.7946 N   0  0  0  0  0  0  0  0  0  0  0  0
   -7.3723   -6.9006   14.6501 C   0  0  0  0  0  0  0  0  0  0  0  0
   -7.2193   -9.2105   11.6612 H   0  0  0  0  0  0  0  0  0  0  0  0
   -6.0336   -9.7369   12.8396 H   0  0  0  0  0  0  0  0  0  0  0  0
   -7.7517   -9.5650   13.3188 H   0  0  0  0  0  0  0  0  0  0  0  0
   -5.2852   -7.3570   11.4803 H   0  0  0  0  0  0  0  0  0  0  0  0
   -4.9912   -5.2238   12.1627 H   0  0  0  0  0  0  0  0  0  0  0  0
   -5.9474   -3.8813   14.4625 H   0  0  0  0  0  0  0  0  0  0  0  0
   -7.0102   -9.8658   17.2113 H   0  0  0  0  0  0  0  0  0  0  0  0
   -8.2915  -12.3106   19.0558 H   0  0  0  0  0  0  0  0  0  0  0  0
   -9.9228  -11.9557   18.6887 H   0  0  0  0  0  0  0  0  0  0  0  0
   -8.9576  -13.5041   20.8347 H   0  0  0  0  0  0  0  0  0  0  0  0
   -9.3658  -12.1879   22.1069 H   0  0  0  0  0  0  0  0  0  0  0  0
  -12.3002  -15.4313   20.7697 H   0  0  0  0  0  0  0  0  0  0  0  0
  -10.2425  -17.9172   24.6707 H   0  0  0  0  0  0  0  0  0  0  0  0
   -9.3039  -16.5729   26.9290 H   0  0  0  0  0  0  0  0  0  0  0  0
  -11.2282  -14.5807   27.6892 H   0  0  0  0  0  0  0  0  0  0  0  0
  -12.8731  -13.8386   25.9352 H   0  0  0  0  0  0  0  0  0  0  0  0
  1  2  1  0
  2  3  2  0
  3  4  1  0
  4  5  2  0
  5  6  1  0
  6  7  1  0
  7  8  1  0
  8  9  1  0
  9 10  1  0
 10 11  2  0
 10 12  1  0
 12 13  1  0
 13 14  1  0
 14 15  1  0
 15 16  2  0
 16 17  1  0
 17 18  2  0
 18 19  1  0
 19 20  2  0
 20 21  1  0
 21 22  2  0
  8 23  2  0
 23 24  1  0
 24  2  1  0
 24  6  2  0
 22 14  1  0
 22 17  1  0
  1 25  1  0
  1 26  1  0
  1 27  1  0
  3 28  1  0
  4 29  1  0
  5 30  1  0
  9 31  1  0
 12 32  1  0
 12 33  1  0
 13 34  1  0
 13 35  1  0
 15 36  1  0
 18 37  1  0
 19 38  1  0
 20 39  1  0
 21 40  1  0
M  END
>  <Energy>  (578) 
1285.5864194191251

>  <compound_id>  (578) 
32701

>  <target_id>  (578) 
1

>  <reference_id>  (578) 
69

>  <inspiration_ids>  (578) 
[69, 52]

>  <energy_score>  (578) 
1230.2347600728056

>  <distance_score>  (578) 
10.354423204778112

>  <path>  (578) 
/opt/xchem-fragalysis-2/maxwin/BulkDock/SCRATCH/511015/C32701-P69/C32701-P69.minimised.mol

>  <scratch_subdir>  (578) 
/opt/xchem-fragalysis-2/maxwin/BulkDock/SCRATCH/511015/C32701-P69

>  <fragmenstein_runtime>  (578) 
31.440537452697754

>  <fragmenstein_outcome>  (578) 
too moved

>  <fragmenstein_mode>  (578) 
expansion

>  <fragmenstein_error>  (578) 


$$$$
C32701-P52
     RDKit          3D

 40 43  0  0  0  0  0  0  0  0999 V2000
   -6.8592   -7.1741   10.3521 C   0  0  0  0  0  0  0  0  0  0  0  0
   -8.0807   -6.1324   10.3727 C   0  0  0  0  0  0  0  0  0  0  0  0
   -8.2051   -4.7256    9.0094 C   0  0  0  0  0  0  0  0  0  0  0  0
   -8.6996   -2.5025    9.4578 C   0  0  0  0  0  0  0  0  0  0  0  0
   -9.3182   -3.2979   11.3872 C   0  0  0  0  0  0  0  0  0  0  0  0
   -8.9676   -4.8373   12.4866 C   0  0  0  0  0  0  0  0  0  0  0  0
   -8.7688   -5.4580   14.6329 S   0  0  0  0  0  0  0  0  0  0  0  0
   -7.9631   -7.5476   15.0271 C   0  0  0  0  0  0  0  0  0  0  0  0
   -8.6046   -8.7601   16.4214 N   0  0  0  0  0  0  0  0  0  0  0  0
   -8.1998  -10.6443   16.8347 C   0  0  0  0  0  0  0  0  0  0  0  0
   -7.3275  -11.1807   16.1951 O   0  0  0  0  0  0  0  0  0  0  0  0
   -9.1752  -12.1035   18.1121 C   0  0  0  0  0  0  0  0  0  0  0  0
   -9.9610  -13.1533   19.8647 C   0  0  0  0  0  0  0  0  0  0  0  0
  -11.6004  -13.8284   21.0291 N   0  0  0  0  0  0  0  0  0  0  0  0
  -12.3231  -15.4151   20.3524 C   0  0  0  0  0  0  0  0  0  0  0  0
  -13.3565  -16.1019   20.7252 N   0  0  0  0  0  0  0  0  0  0  0  0
  -13.2713  -16.0821   22.0293 C   0  0  0  0  0  0  0  0  0  0  0  0
  -14.3154  -16.7866   22.8070 C   0  0  0  0  0  0  0  0  0  0  0  0
  -14.5038  -16.7792   24.1512 C   0  0  0  0  0  0  0  0  0  0  0  0
  -13.6747  -15.9182   24.7534 C   0  0  0  0  0  0  0  0  0  0  0  0
  -12.6242  -15.2576   24.0186 C   0  0  0  0  0  0  0  0  0  0  0  0
  -12.0233  -15.1280   22.4290 C   0  0  0  0  0  0  0  0  0  0  0  0
   -8.1627   -7.3895   13.4162 N   0  0  0  0  0  0  0  0  0  0  0  0
   -8.3959   -6.1118   12.1127 C   0  0  0  0  0  0  0  0  0  0  0  0
   -6.1678   -6.8079   11.1063 H   0  0  0  0  0  0  0  0  0  0  0  0
   -7.1787   -8.1624   10.7060 H   0  0  0  0  0  0  0  0  0  0  0  0
   -6.4372   -7.2789    9.3573 H   0  0  0  0  0  0  0  0  0  0  0  0
   -7.0332   -5.1677    9.7107 H   0  0  0  0  0  0  0  0  0  0  0  0
   -8.1157   -1.5458    9.6954 H   0  0  0  0  0  0  0  0  0  0  0  0
   -8.8822   -2.6902   12.2461 H   0  0  0  0  0  0  0  0  0  0  0  0
   -9.2819   -8.4216   17.0856 H   0  0  0  0  0  0  0  0  0  0  0  0
   -9.8456  -12.6276   17.4196 H   0  0  0  0  0  0  0  0  0  0  0  0
   -8.2749  -12.7286   18.1082 H   0  0  0  0  0  0  0  0  0  0  0  0
  -10.4612  -13.6907   18.9733 H   0  0  0  0  0  0  0  0  0  0  0  0
  -10.1910  -12.3844   20.5991 H   0  0  0  0  0  0  0  0  0  0  0  0
  -11.7876  -15.7554   19.4120 H   0  0  0  0  0  0  0  0  0  0  0  0
  -15.0653  -17.2986   22.2007 H   0  0  0  0  0  0  0  0  0  0  0  0
  -15.3194  -17.2875   24.6426 H   0  0  0  0  0  0  0  0  0  0  0  0
  -13.8689  -15.6308   25.7880 H   0  0  0  0  0  0  0  0  0  0  0  0
  -12.2988  -14.5735   24.8204 H   0  0  0  0  0  0  0  0  0  0  0  0
  1  2  1  0
  2  3  2  0
  3  4  1  0
  4  5  2  0
  5  6  1  0
  6  7  1  0
  7  8  1  0
  8  9  1  0
  9 10  1  0
 10 11  2  0
 10 12  1  0
 12 13  1  0
 13 14  1  0
 14 15  1  0
 15 16  2  0
 16 17  1  0
 17 18  2  0
 18 19  1  0
 19 20  2  0
 20 21  1  0
 21 22  2  0
  8 23  2  0
 23 24  1  0
 24  2  1  0
 24  6  2  0
 22 14  1  0
 22 17  1  0
  1 25  1  0
  1 26  1  0
  1 27  1  0
  3 28  1  0
  4 29  1  0
  5 30  1  0
  9 31  1  0
 12 32  1  0
 12 33  1  0
 13 34  1  0
 13 35  1  0
 15 36  1  0
 18 37  1  0
 19 38  1  0
 20 39  1  0
 21 40  1  0
M  END
>  <Energy>  (579) 
2444.5024043490994

>  <compound_id>  (579) 
32701

>  <target_id>  (579) 
1

>  <reference_id>  (579) 
52

>  <inspiration_ids>  (579) 
[69, 52]

>  <energy_score>  (579) 
2389.150745002828

>  <distance_score>  (579) 
10.139524995301416

>  <path>  (579) 
/opt/xchem-fragalysis-2/maxwin/BulkDock/SCRATCH/511015/C32701-P52/C32701-P52.minimised.mol

>  <scratch_subdir>  (579) 
/opt/xchem-fragalysis-2/maxwin/BulkDock/SCRATCH/511015/C32701-P52

>  <fragmenstein_runtime>  (579) 
32.676618337631226

>  <fragmenstein_outcome>  (579) 
too moved

>  <fragmenstein_mode>  (579) 
expansion

>  <fragmenstein_error>  (579) 


$$$$
C32702-P69
     RDKit          3D

 40 43  0  0  0  0  0  0  0  0999 V2000
   -9.5974  -10.2024   11.9030 C   0  0  0  0  0  0  0  0  0  0  0  0
   -8.4614  -10.1224   12.9982 C   0  0  0  0  0  0  0  0  0  0  0  0
   -7.2590  -10.2674   12.2597 C   0  0  0  0  0  0  0  0  0  0  0  0
   -6.9546  -11.5561   11.8329 C   0  0  0  0  0  0  0  0  0  0  0  0
   -7.6593  -12.6448   12.3775 C   0  0  0  0  0  0  0  0  0  0  0  0
   -8.3824  -12.3416   13.5402 C   0  0  0  0  0  0  0  0  0  0  0  0
   -9.2891  -13.0751   14.7553 S   0  0  0  0  0  0  0  0  0  0  0  0
   -8.5335  -12.2626   16.8699 C   0  0  0  0  0  0  0  0  0  0  0  0
   -9.8097  -12.6711   18.3390 N   0  0  0  0  0  0  0  0  0  0  0  0
  -10.1212  -14.3167   19.4368 C   0  0  0  0  0  0  0  0  0  0  0  0
   -9.3203  -15.2112   19.2187 O   0  0  0  0  0  0  0  0  0  0  0  0
  -11.5173  -14.9734   21.1245 C   0  0  0  0  0  0  0  0  0  0  0  0
  -11.0560  -13.4335   21.8754 C   0  0  0  0  0  0  0  0  0  0  0  0
  -11.4627  -15.6757   23.0443 N   0  0  0  0  0  0  0  0  0  0  0  0
  -12.5085  -15.9382   23.9007 C   0  0  0  0  0  0  0  0  0  0  0  0
  -12.4179  -17.0801   24.5334 N   0  0  0  0  0  0  0  0  0  0  0  0
  -10.8350  -17.6568   24.8671 C   0  0  0  0  0  0  0  0  0  0  0  0
   -9.8839  -18.9514   24.4195 C   0  0  0  0  0  0  0  0  0  0  0  0
   -8.5245  -18.9529   24.6883 C   0  0  0  0  0  0  0  0  0  0  0  0
   -8.0832  -17.7609   25.1591 C   0  0  0  0  0  0  0  0  0  0  0  0
   -8.9318  -16.6490   24.9690 C   0  0  0  0  0  0  0  0  0  0  0  0
  -10.3802  -16.6616   24.2188 C   0  0  0  0  0  0  0  0  0  0  0  0
   -8.4845  -11.2929   15.5499 N   0  0  0  0  0  0  0  0  0  0  0  0
   -8.6011  -11.1043   14.0108 C   0  0  0  0  0  0  0  0  0  0  0  0
   -9.8085  -11.2306   11.5875 H   0  0  0  0  0  0  0  0  0  0  0  0
  -10.5219   -9.8110   12.3056 H   0  0  0  0  0  0  0  0  0  0  0  0
   -9.3076   -9.6722   10.9938 H   0  0  0  0  0  0  0  0  0  0  0  0
   -6.8330   -9.4214   11.7259 H   0  0  0  0  0  0  0  0  0  0  0  0
   -6.2184  -11.7181   11.0503 H   0  0  0  0  0  0  0  0  0  0  0  0
   -7.5061  -13.6645   12.0480 H   0  0  0  0  0  0  0  0  0  0  0  0
  -10.5659  -12.0213   18.5211 H   0  0  0  0  0  0  0  0  0  0  0  0
  -12.5265  -15.4000   20.9028 H   0  0  0  0  0  0  0  0  0  0  0  0
  -11.3360  -13.5140   22.9182 H   0  0  0  0  0  0  0  0  0  0  0  0
  -11.6476  -12.8131   21.3678 H   0  0  0  0  0  0  0  0  0  0  0  0
  -10.0593  -13.0124   21.6322 H   0  0  0  0  0  0  0  0  0  0  0  0
  -13.0154  -15.2080   24.4698 H   0  0  0  0  0  0  0  0  0  0  0  0
  -10.4103  -19.8821   24.1689 H   0  0  0  0  0  0  0  0  0  0  0  0
   -7.9129  -19.8425   24.6212 H   0  0  0  0  0  0  0  0  0  0  0  0
   -7.0844  -17.6336   25.5657 H   0  0  0  0  0  0  0  0  0  0  0  0
   -8.5316  -15.7209   25.3961 H   0  0  0  0  0  0  0  0  0  0  0  0
  1  2  1  0
  2  3  2  0
  3  4  1  0
  4  5  2  0
  5  6  1  0
  6  7  1  0
  7  8  1  0
  8  9  1  0
  9 10  1  0
 10 11  2  0
 10 12  1  0
 12 13  1  0
 12 14  1  0
 14 15  1  0
 15 16  2  0
 16 17  1  0
 17 18  2  0
 18 19  1  0
 19 20  2  0
 20 21  1  0
 21 22  2  0
  8 23  2  0
 23 24  1  0
 24  2  1  0
 24  6  2  0
 22 14  1  0
 22 17  1  0
  1 25  1  0
  1 26  1  0
  1 27  1  0
  3 28  1  0
  4 29  1  0
  5 30  1  0
  9 31  1  0
 12 32  1  0
 13 33  1  0
 13 34  1  0
 13 35  1  0
 15 36  1  0
 18 37  1  0
 19 38  1  0
 20 39  1  0
 21 40  1  0
M  END
>  <Energy>  (580) 
1307.7295206973022

>  <compound_id>  (580) 
32702

>  <target_id>  (580) 
1

>  <reference_id>  (580) 
69

>  <inspiration_ids>  (580) 
[69, 52]

>  <energy_score>  (580) 
1196.6197514887162

>  <distance_score>  (580) 
11.521245536513069

>  <path>  (580) 
/opt/xchem-fragalysis-2/maxwin/BulkDock/SCRATCH/511015/C32702-P69/C32702-P69.minimised.mol

>  <scratch_subdir>  (580) 
/opt/xchem-fragalysis-2/maxwin/BulkDock/SCRATCH/511015/C32702-P69

>  <fragmenstein_runtime>  (580) 
25.74003839492798

>  <fragmenstein_outcome>  (580) 
too moved

>  <fragmenstein_mode>  (580) 
expansion

>  <fragmenstein_error>  (580) 


$$$$
C32702-P52
     RDKit          3D

 40 43  0  0  0  0  0  0  0  0999 V2000
  -18.5557   -9.1819   15.7406 C   0  0  0  0  0  0  0  0  0  0  0  0
  -17.7801   -8.3412   16.7190 C   0  0  0  0  0  0  0  0  0  0  0  0
  -17.3560   -7.0518   16.3089 C   0  0  0  0  0  0  0  0  0  0  0  0
  -16.6789   -6.2140   17.1835 C   0  0  0  0  0  0  0  0  0  0  0  0
  -16.3937   -6.6433   18.4871 C   0  0  0  0  0  0  0  0  0  0  0  0
  -16.7597   -7.9506   18.8829 C   0  0  0  0  0  0  0  0  0  0  0  0
  -16.5410   -8.7623   20.4034 S   0  0  0  0  0  0  0  0  0  0  0  0
  -17.3690  -10.1619   19.8750 C   0  0  0  0  0  0  0  0  0  0  0  0
  -17.6544  -11.2983   20.6691 N   0  0  0  0  0  0  0  0  0  0  0  0
  -17.4588  -11.5468   22.1354 C   0  0  0  0  0  0  0  0  0  0  0  0
  -16.9374  -10.8683   22.9813 O   0  0  0  0  0  0  0  0  0  0  0  0
  -18.1674  -12.9017   22.6316 C   0  0  0  0  0  0  0  0  0  0  0  0
  -19.4701  -12.5168   23.3376 C   0  0  0  0  0  0  0  0  0  0  0  0
  -17.4598  -13.9644   23.4624 N   0  0  0  0  0  0  0  0  0  0  0  0
  -17.5230  -15.3021   23.0771 C   0  0  0  0  0  0  0  0  0  0  0  0
  -16.8861  -16.1176   23.8829 N   0  0  0  0  0  0  0  0  0  0  0  0
  -16.4291  -15.3268   24.8973 C   0  0  0  0  0  0  0  0  0  0  0  0
  -15.6296  -15.7023   25.9946 C   0  0  0  0  0  0  0  0  0  0  0  0
  -15.2884  -14.7494   26.9482 C   0  0  0  0  0  0  0  0  0  0  0  0
  -15.7310  -13.4383   26.7954 C   0  0  0  0  0  0  0  0  0  0  0  0
  -16.4964  -13.0288   25.6793 C   0  0  0  0  0  0  0  0  0  0  0  0
  -16.8319  -13.9887   24.7124 C   0  0  0  0  0  0  0  0  0  0  0  0
  -17.7478  -10.0698   18.6063 N   0  0  0  0  0  0  0  0  0  0  0  0
  -17.4456   -8.8099   18.0305 C   0  0  0  0  0  0  0  0  0  0  0  0
  -17.9202   -9.4686   14.8973 H   0  0  0  0  0  0  0  0  0  0  0  0
  -19.4156   -8.6196   15.3619 H   0  0  0  0  0  0  0  0  0  0  0  0
  -18.9385  -10.0921   16.2102 H   0  0  0  0  0  0  0  0  0  0  0  0
  -17.5899   -6.7027   15.3048 H   0  0  0  0  0  0  0  0  0  0  0  0
  -16.3833   -5.2174   16.8656 H   0  0  0  0  0  0  0  0  0  0  0  0
  -15.8850   -5.9862   19.1860 H   0  0  0  0  0  0  0  0  0  0  0  0
  -18.2066  -12.0453   20.2755 H   0  0  0  0  0  0  0  0  0  0  0  0
  -18.4409  -13.4461   21.7181 H   0  0  0  0  0  0  0  0  0  0  0  0
  -19.2690  -12.0005   24.2828 H   0  0  0  0  0  0  0  0  0  0  0  0
  -20.0777  -13.4003   23.5609 H   0  0  0  0  0  0  0  0  0  0  0  0
  -20.0674  -11.8424   22.7145 H   0  0  0  0  0  0  0  0  0  0  0  0
  -18.0359  -15.6124   22.1757 H   0  0  0  0  0  0  0  0  0  0  0  0
  -15.2716  -16.7193   26.0721 H   0  0  0  0  0  0  0  0  0  0  0  0
  -14.6733  -15.0217   27.7995 H   0  0  0  0  0  0  0  0  0  0  0  0
  -15.4550  -12.6947   27.5414 H   0  0  0  0  0  0  0  0  0  0  0  0
  -16.7784  -11.9864   25.5584 H   0  0  0  0  0  0  0  0  0  0  0  0
  1  2  1  0
  2  3  2  0
  3  4  1  0
  4  5  2  0
  5  6  1  0
  6  7  1  0
  7  8  1  0
  8  9  1  0
  9 10  1  0
 10 11  2  0
 10 12  1  0
 12 13  1  0
 12 14  1  0
 14 15  1  0
 15 16  2  0
 16 17  1  0
 17 18  2  0
 18 19  1  0
 19 20  2  0
 20 21  1  0
 21 22  2  0
  8 23  2  0
 23 24  1  0
 24  2  1  0
 24  6  2  0
 22 14  1  0
 22 17  1  0
  1 25  1  0
  1 26  1  0
  1 27  1  0
  3 28  1  0
  4 29  1  0
  5 30  1  0
  9 31  1  0
 12 32  1  0
 13 33  1  0
 13 34  1  0
 13 35  1  0
 15 36  1  0
 18 37  1  0
 19 38  1  0
 20 39  1  0
 21 40  1  0
M  END
>  <Energy>  (581) 
36.896629076893035

>  <compound_id>  (581) 
32702

>  <target_id>  (581) 
1

>  <reference_id>  (581) 
52

>  <inspiration_ids>  (581) 
[69, 52]

>  <energy_score>  (581) 
-74.21314013168967

>  <distance_score>  (581) 
14.866127799274139

>  <path>  (581) 
/opt/xchem-fragalysis-2/maxwin/BulkDock/SCRATCH/511015/C32702-P52/C32702-P52.minimised.mol

>  <scratch_subdir>  (581) 
/opt/xchem-fragalysis-2/maxwin/BulkDock/SCRATCH/511015/C32702-P52

>  <fragmenstein_runtime>  (581) 
32.94001507759094

>  <fragmenstein_outcome>  (581) 
too moved

>  <fragmenstein_mode>  (581) 
expansion

>  <fragmenstein_error>  (581) 


$$$$
C32703-P69
     RDKit          3D

 47 50  0  0  0  0  0  0  0  0999 V2000
  -11.1141  -11.9811    8.8227 C   0  0  0  0  0  0  0  0  0  0  0  0
  -10.4195  -10.7669    9.4117 C   0  0  0  0  0  0  0  0  0  0  0  0
   -9.3171  -11.1963   10.3711 C   0  0  0  0  0  0  0  0  0  0  0  0
   -8.2192  -11.4051    9.9417 O   0  0  0  0  0  0  0  0  0  0  0  0
   -9.8575  -11.3673   11.6878 N   0  0  0  0  0  0  0  0  0  0  0  0
   -9.3146  -11.8960   12.8056 C   0  0  0  0  0  0  0  0  0  0  0  0
   -8.0902  -12.3010   12.9887 N   0  0  0  0  0  0  0  0  0  0  0  0
   -8.0770  -13.1486   14.0859 C   0  0  0  0  0  0  0  0  0  0  0  0
   -6.9972  -13.9415   14.5004 C   0  0  0  0  0  0  0  0  0  0  0  0
   -7.1824  -14.9118   15.5170 C   0  0  0  0  0  0  0  0  0  0  0  0
   -8.3991  -15.1048   16.1989 C   0  0  0  0  0  0  0  0  0  0  0  0
   -8.4651  -16.1942   17.1522 N   0  0  0  0  0  0  0  0  0  0  0  0
   -9.5461  -16.6282   18.0449 C   0  0  0  0  0  0  0  0  0  0  0  0
  -10.6225  -16.1400   18.2665 O   0  0  0  0  0  0  0  0  0  0  0  0
   -9.2203  -17.9953   18.8361 C   0  0  0  0  0  0  0  0  0  0  0  0
   -8.2607  -17.9398   20.0577 C   0  0  0  0  0  0  0  0  0  0  0  0
   -8.3065  -18.7995   21.2759 N   0  0  0  0  0  0  0  0  0  0  0  0
   -7.2041  -18.7909   22.1293 C   0  0  0  0  0  0  0  0  0  0  0  0
   -7.3751  -19.4869   23.2263 N   0  0  0  0  0  0  0  0  0  0  0  0
   -8.6408  -19.9733   23.1435 C   0  0  0  0  0  0  0  0  0  0  0  0
   -9.3080  -20.7736   24.0939 C   0  0  0  0  0  0  0  0  0  0  0  0
  -10.6426  -21.1019   23.8853 C   0  0  0  0  0  0  0  0  0  0  0  0
  -11.2842  -20.6467   22.7362 C   0  0  0  0  0  0  0  0  0  0  0  0
  -10.6197  -19.8773   21.7523 C   0  0  0  0  0  0  0  0  0  0  0  0
   -9.2733  -19.5411   21.9599 C   0  0  0  0  0  0  0  0  0  0  0  0
   -9.4457  -14.2205   15.8676 C   0  0  0  0  0  0  0  0  0  0  0  0
   -9.2811  -13.2821   14.7890 C   0  0  0  0  0  0  0  0  0  0  0  0
  -10.4228  -12.1960   14.0587 S   0  0  0  0  0  0  0  0  0  0  0  0
  -10.4010  -12.6221    8.2937 H   0  0  0  0  0  0  0  0  0  0  0  0
  -11.8878  -11.6708    8.1138 H   0  0  0  0  0  0  0  0  0  0  0  0
  -11.5871  -12.5844    9.6045 H   0  0  0  0  0  0  0  0  0  0  0  0
   -9.9706  -10.1627    8.6178 H   0  0  0  0  0  0  0  0  0  0  0  0
  -11.1537  -10.1382    9.9218 H   0  0  0  0  0  0  0  0  0  0  0  0
  -10.8452  -11.1681   11.6665 H   0  0  0  0  0  0  0  0  0  0  0  0
   -6.0462  -13.8622   13.9816 H   0  0  0  0  0  0  0  0  0  0  0  0
   -6.3286  -15.5459   15.7521 H   0  0  0  0  0  0  0  0  0  0  0  0
   -7.6674  -16.8018   17.2788 H   0  0  0  0  0  0  0  0  0  0  0  0
   -8.8361  -18.7131   18.1011 H   0  0  0  0  0  0  0  0  0  0  0  0
  -10.1912  -18.3873   19.1573 H   0  0  0  0  0  0  0  0  0  0  0  0
   -8.2169  -16.9153   20.4302 H   0  0  0  0  0  0  0  0  0  0  0  0
   -7.2575  -18.1301   19.6480 H   0  0  0  0  0  0  0  0  0  0  0  0
   -6.3058  -18.2344   21.8865 H   0  0  0  0  0  0  0  0  0  0  0  0
   -8.7783  -21.1065   24.9800 H   0  0  0  0  0  0  0  0  0  0  0  0
  -11.1861  -21.7061   24.6084 H   0  0  0  0  0  0  0  0  0  0  0  0
  -12.3322  -20.9065   22.5813 H   0  0  0  0  0  0  0  0  0  0  0  0
  -11.1578  -19.5632   20.8635 H   0  0  0  0  0  0  0  0  0  0  0  0
  -10.4064  -14.2915   16.3734 H   0  0  0  0  0  0  0  0  0  0  0  0
  1  2  1  0
  2  3  1  0
  3  4  2  0
  3  5  1  0
  5  6  1  0
  6  7  2  0
  7  8  1  0
  8  9  2  0
  9 10  1  0
 10 11  2  0
 11 12  1  0
 12 13  1  0
 13 14  2  0
 13 15  1  0
 15 16  1  0
 16 17  1  0
 17 18  1  0
 18 19  2  0
 19 20  1  0
 20 21  2  0
 21 22  1  0
 22 23  2  0
 23 24  1  0
 24 25  2  0
 11 26  1  0
 26 27  2  0
 27 28  1  0
 28  6  1  0
 27  8  1  0
 25 17  1  0
 25 20  1  0
  1 29  1  0
  1 30  1  0
  1 31  1  0
  2 32  1  0
  2 33  1  0
  5 34  1  0
  9 35  1  0
 10 36  1  0
 12 37  1  0
 15 38  1  0
 15 39  1  0
 16 40  1  0
 16 41  1  0
 18 42  1  0
 21 43  1  0
 22 44  1  0
 23 45  1  0
 24 46  1  0
 26 47  1  0
M  END
>  <Energy>  (582) 
3.9786609103789212

>  <compound_id>  (582) 
32703

>  <target_id>  (582) 
1

>  <reference_id>  (582) 
69

>  <inspiration_ids>  (582) 
[69, 52]

>  <energy_score>  (582) 
-40.789311987841074

>  <distance_score>  (582) 
14.055956902056225

>  <path>  (582) 
/opt/xchem-fragalysis-2/maxwin/BulkDock/SCRATCH/511015/C32703-P69/C32703-P69.minimised.mol

>  <scratch_subdir>  (582) 
/opt/xchem-fragalysis-2/maxwin/BulkDock/SCRATCH/511015/C32703-P69

>  <fragmenstein_runtime>  (582) 
80.5874617099762

>  <fragmenstein_outcome>  (582) 
too moved

>  <fragmenstein_mode>  (582) 
expansion

>  <fragmenstein_error>  (582) 


$$$$
C32703-P52
     RDKit          3D

 47 50  0  0  0  0  0  0  0  0999 V2000
   -6.8396   -1.4000    6.4696 C   0  0  0  0  0  0  0  0  0  0  0  0
   -8.2213   -1.0202    6.9564 C   0  0  0  0  0  0  0  0  0  0  0  0
   -8.8036   -1.0676    8.4448 C   0  0  0  0  0  0  0  0  0  0  0  0
  -10.0232   -1.1433    8.4117 O   0  0  0  0  0  0  0  0  0  0  0  0
   -7.7669   -1.1274    9.7258 N   0  0  0  0  0  0  0  0  0  0  0  0
   -8.0093   -1.3767   11.0708 C   0  0  0  0  0  0  0  0  0  0  0  0
   -7.5128   -2.5308   11.9481 N   0  0  0  0  0  0  0  0  0  0  0  0
   -8.1755   -3.3815   12.8559 C   0  0  0  0  0  0  0  0  0  0  0  0
   -8.2219   -4.7651   13.3504 C   0  0  0  0  0  0  0  0  0  0  0  0
   -8.4443   -5.3064   14.8052 C   0  0  0  0  0  0  0  0  0  0  0  0
   -8.5174   -4.5123   15.9550 C   0  0  0  0  0  0  0  0  0  0  0  0
   -8.5614   -5.1082   17.6326 N   0  0  0  0  0  0  0  0  0  0  0  0
   -8.8628   -6.6985   18.2659 C   0  0  0  0  0  0  0  0  0  0  0  0
   -9.1652   -7.7014   17.6419 O   0  0  0  0  0  0  0  0  0  0  0  0
   -8.6725   -7.0584   20.2161 C   0  0  0  0  0  0  0  0  0  0  0  0
   -9.0526   -8.6069   21.7577 C   0  0  0  0  0  0  0  0  0  0  0  0
   -8.0118   -9.8278   23.0318 N   0  0  0  0  0  0  0  0  0  0  0  0
   -8.0409   -9.5140   24.4395 C   0  0  0  0  0  0  0  0  0  0  0  0
   -8.5025  -10.5765   24.9459 N   0  0  0  0  0  0  0  0  0  0  0  0
   -7.2198  -10.9238   25.1676 C   0  0  0  0  0  0  0  0  0  0  0  0
   -6.4969  -11.5292   26.6474 C   0  0  0  0  0  0  0  0  0  0  0  0
   -7.1776  -12.4657   27.3216 C   0  0  0  0  0  0  0  0  0  0  0  0
   -7.9685  -12.8878   26.3623 C   0  0  0  0  0  0  0  0  0  0  0  0
   -7.2935  -12.5857   24.9486 C   0  0  0  0  0  0  0  0  0  0  0  0
   -6.9684  -11.1819   23.7701 C   0  0  0  0  0  0  0  0  0  0  0  0
   -8.3886   -3.0071   15.3959 C   0  0  0  0  0  0  0  0  0  0  0  0
   -8.2550   -2.4529   13.7862 C   0  0  0  0  0  0  0  0  0  0  0  0
   -7.5773   -0.7353   12.4005 S   0  0  0  0  0  0  0  0  0  0  0  0
   -6.7063   -1.0041    5.4595 H   0  0  0  0  0  0  0  0  0  0  0  0
   -6.7393   -2.4769    6.3633 H   0  0  0  0  0  0  0  0  0  0  0  0
   -6.0226   -1.0286    7.0813 H   0  0  0  0  0  0  0  0  0  0  0  0
   -8.8822   -1.7207    6.4187 H   0  0  0  0  0  0  0  0  0  0  0  0
   -8.5055   -0.0506    6.5297 H   0  0  0  0  0  0  0  0  0  0  0  0
   -6.8138   -1.0296    9.3989 H   0  0  0  0  0  0  0  0  0  0  0  0
   -7.9868   -5.5438   12.6219 H   0  0  0  0  0  0  0  0  0  0  0  0
   -8.4410   -6.3928   14.9152 H   0  0  0  0  0  0  0  0  0  0  0  0
   -8.4135   -4.4623   18.3972 H   0  0  0  0  0  0  0  0  0  0  0  0
   -9.2921   -6.2318   20.3781 H   0  0  0  0  0  0  0  0  0  0  0  0
   -7.6664   -6.5548   20.2251 H   0  0  0  0  0  0  0  0  0  0  0  0
   -9.4761   -7.8299   22.3212 H   0  0  0  0  0  0  0  0  0  0  0  0
   -9.9338   -9.2738   21.7314 H   0  0  0  0  0  0  0  0  0  0  0  0
   -8.1572   -8.5783   24.9919 H   0  0  0  0  0  0  0  0  0  0  0  0
   -5.5101  -11.1676   26.9159 H   0  0  0  0  0  0  0  0  0  0  0  0
   -7.0137  -12.8854   28.2919 H   0  0  0  0  0  0  0  0  0  0  0  0
   -8.6500  -13.7256   26.4788 H   0  0  0  0  0  0  0  0  0  0  0  0
   -7.4723  -13.6105   24.4587 H   0  0  0  0  0  0  0  0  0  0  0  0
   -8.3466   -2.2238   16.1493 H   0  0  0  0  0  0  0  0  0  0  0  0
  1  2  1  0
  2  3  1  0
  3  4  2  0
  3  5  1  0
  5  6  1  0
  6  7  2  0
  7  8  1  0
  8  9  2  0
  9 10  1  0
 10 11  2  0
 11 12  1  0
 12 13  1  0
 13 14  2  0
 13 15  1  0
 15 16  1  0
 16 17  1  0
 17 18  1  0
 18 19  2  0
 19 20  1  0
 20 21  2  0
 21 22  1  0
 22 23  2  0
 23 24  1  0
 24 25  2  0
 11 26  1  0
 26 27  2  0
 27 28  1  0
 28  6  1  0
 27  8  1  0
 25 17  1  0
 25 20  1  0
  1 29  1  0
  1 30  1  0
  1 31  1  0
  2 32  1  0
  2 33  1  0
  5 34  1  0
  9 35  1  0
 10 36  1  0
 12 37  1  0
 15 38  1  0
 15 39  1  0
 16 40  1  0
 16 41  1  0
 18 42  1  0
 21 43  1  0
 22 44  1  0
 23 45  1  0
 24 46  1  0
 26 47  1  0
M  END
>  <Energy>  (583) 
1286.9870461619619

>  <compound_id>  (583) 
32703

>  <target_id>  (583) 
1

>  <reference_id>  (583) 
52

>  <inspiration_ids>  (583) 
[69, 52]

>  <energy_score>  (583) 
1242.2190732637216

>  <distance_score>  (583) 
11.478993258501825

>  <path>  (583) 
/opt/xchem-fragalysis-2/maxwin/BulkDock/SCRATCH/511015/C32703-P52/C32703-P52.minimised.mol

>  <scratch_subdir>  (583) 
/opt/xchem-fragalysis-2/maxwin/BulkDock/SCRATCH/511015/C32703-P52

>  <fragmenstein_runtime>  (583) 
37.07456064224243

>  <fragmenstein_outcome>  (583) 
too moved

>  <fragmenstein_mode>  (583) 
expansion

>  <fragmenstein_error>  (583) 


$$$$
C32704-P69
     RDKit          3D

 41 44  0  0  0  0  0  0  0  0999 V2000
   -7.9083    0.0205   10.0048 C   0  0  0  0  0  0  0  0  0  0  0  0
   -7.5126   -0.1510   11.3783 O   0  0  0  0  0  0  0  0  0  0  0  0
   -7.3603   -1.4181   11.8321 C   0  0  0  0  0  0  0  0  0  0  0  0
   -7.0283   -2.8105   10.3270 C   0  0  0  0  0  0  0  0  0  0  0  0
   -7.0968   -4.7417   11.2404 C   0  0  0  0  0  0  0  0  0  0  0  0
   -7.3757   -5.3192   13.2029 C   0  0  0  0  0  0  0  0  0  0  0  0
   -7.1436   -6.5764   14.7687 N   0  0  0  0  0  0  0  0  0  0  0  0
   -7.1762   -7.0546   16.5404 C   0  0  0  0  0  0  0  0  0  0  0  0
   -7.4143   -8.8916   17.4033 N   0  0  0  0  0  0  0  0  0  0  0  0
   -8.5269   -9.6335   19.0504 C   0  0  0  0  0  0  0  0  0  0  0  0
   -9.0957   -8.7714   19.7366 O   0  0  0  0  0  0  0  0  0  0  0  0
   -9.1283  -11.8090   19.6797 C   0  0  0  0  0  0  0  0  0  0  0  0
   -9.8240  -13.0687   21.5918 C   0  0  0  0  0  0  0  0  0  0  0  0
  -10.3984  -14.5908   23.1770 N   0  0  0  0  0  0  0  0  0  0  0  0
   -8.9941  -15.2323   24.7265 C   0  0  0  0  0  0  0  0  0  0  0  0
   -9.1402  -16.3210   25.4539 N   0  0  0  0  0  0  0  0  0  0  0  0
  -10.4147  -16.6967   25.2250 C   0  0  0  0  0  0  0  0  0  0  0  0
  -10.5592  -15.6639   26.7185 C   0  0  0  0  0  0  0  0  0  0  0  0
  -11.6558  -14.7210   26.9875 C   0  0  0  0  0  0  0  0  0  0  0  0
  -12.6956  -14.7352   26.0014 C   0  0  0  0  0  0  0  0  0  0  0  0
  -12.6215  -15.5454   24.5923 C   0  0  0  0  0  0  0  0  0  0  0  0
  -11.4346  -15.9735   23.8579 C   0  0  0  0  0  0  0  0  0  0  0  0
   -7.9419   -4.9818   16.2168 S   0  0  0  0  0  0  0  0  0  0  0  0
   -7.8436   -4.0990   14.1602 C   0  0  0  0  0  0  0  0  0  0  0  0
   -7.9917   -2.3264   13.5352 C   0  0  0  0  0  0  0  0  0  0  0  0
   -7.0943   -0.2552    9.3282 H   0  0  0  0  0  0  0  0  0  0  0  0
   -8.1394    1.0738    9.8354 H   0  0  0  0  0  0  0  0  0  0  0  0
   -8.8313   -0.5226    9.7745 H   0  0  0  0  0  0  0  0  0  0  0  0
   -7.5405   -2.5521    9.3083 H   0  0  0  0  0  0  0  0  0  0  0  0
   -6.2465   -5.4463   11.2089 H   0  0  0  0  0  0  0  0  0  0  0  0
   -6.9091   -9.6729   16.9626 H   0  0  0  0  0  0  0  0  0  0  0  0
   -8.2958  -12.4682   19.2667 H   0  0  0  0  0  0  0  0  0  0  0  0
   -9.8144  -12.0896   18.8178 H   0  0  0  0  0  0  0  0  0  0  0  0
  -10.9161  -12.9277   21.7194 H   0  0  0  0  0  0  0  0  0  0  0  0
   -9.2115  -12.3567   22.1941 H   0  0  0  0  0  0  0  0  0  0  0  0
   -8.1301  -14.5532   25.0447 H   0  0  0  0  0  0  0  0  0  0  0  0
   -9.5964  -15.6309   27.1976 H   0  0  0  0  0  0  0  0  0  0  0  0
  -11.7055  -14.1289   27.8914 H   0  0  0  0  0  0  0  0  0  0  0  0
  -13.6812  -14.3658   26.3045 H   0  0  0  0  0  0  0  0  0  0  0  0
  -13.5432  -16.0639   24.3037 H   0  0  0  0  0  0  0  0  0  0  0  0
   -7.4119   -1.8858   14.4280 H   0  0  0  0  0  0  0  0  0  0  0  0
  1  2  1  0
  2  3  1  0
  3  4  2  0
  4  5  1  0
  5  6  2  0
  6  7  1  0
  7  8  2  0
  8  9  1  0
  9 10  1  0
 10 11  2  0
 10 12  1  0
 12 13  1  0
 13 14  1  0
 14 15  1  0
 15 16  2  0
 16 17  1  0
 17 18  2  0
 18 19  1  0
 19 20  2  0
 20 21  1  0
 21 22  2  0
  8 23  1  0
 23 24  1  0
 24 25  2  0
 25  3  1  0
 24  6  1  0
 22 14  1  0
 22 17  1  0
  1 26  1  0
  1 27  1  0
  1 28  1  0
  4 29  1  0
  5 30  1  0
  9 31  1  0
 12 32  1  0
 12 33  1  0
 13 34  1  0
 13 35  1  0
 15 36  1  0
 18 37  1  0
 19 38  1  0
 20 39  1  0
 21 40  1  0
 25 41  1  0
M  END
>  <Energy>  (584) 
3201.3611602270471

>  <compound_id>  (584) 
32704

>  <target_id>  (584) 
1

>  <reference_id>  (584) 
69

>  <inspiration_ids>  (584) 
[69, 52]

>  <energy_score>  (584) 
3154.013878831979

>  <distance_score>  (584) 
9.056264982632298

>  <path>  (584) 
/opt/xchem-fragalysis-2/maxwin/BulkDock/SCRATCH/511015/C32704-P69/C32704-P69.minimised.mol

>  <scratch_subdir>  (584) 
/opt/xchem-fragalysis-2/maxwin/BulkDock/SCRATCH/511015/C32704-P69

>  <fragmenstein_runtime>  (584) 
21.91676139831543

>  <fragmenstein_outcome>  (584) 
too moved

>  <fragmenstein_mode>  (584) 
expansion

>  <fragmenstein_error>  (584) 


$$$$
C32704-P52
     RDKit          3D

 41 44  0  0  0  0  0  0  0  0999 V2000
   -6.6985   -7.4475   10.7624 C   0  0  0  0  0  0  0  0  0  0  0  0
   -6.6910   -8.4071    9.6807 O   0  0  0  0  0  0  0  0  0  0  0  0
   -6.6602   -9.6699   10.2281 C   0  0  0  0  0  0  0  0  0  0  0  0
   -5.4243  -10.1626   10.5629 C   0  0  0  0  0  0  0  0  0  0  0  0
   -5.2803  -10.7200   11.8149 C   0  0  0  0  0  0  0  0  0  0  0  0
   -6.4164  -10.7243   12.6989 C   0  0  0  0  0  0  0  0  0  0  0  0
   -6.4036  -10.5754   14.4880 N   0  0  0  0  0  0  0  0  0  0  0  0
   -7.5101  -10.5841   15.2318 C   0  0  0  0  0  0  0  0  0  0  0  0
   -7.6362  -11.7546   16.5902 N   0  0  0  0  0  0  0  0  0  0  0  0
   -9.0002  -12.6345   17.2326 C   0  0  0  0  0  0  0  0  0  0  0  0
  -10.2057  -12.5726   16.9565 O   0  0  0  0  0  0  0  0  0  0  0  0
   -8.7540  -13.7668   18.2050 C   0  0  0  0  0  0  0  0  0  0  0  0
   -8.7767  -15.7320   18.0340 C   0  0  0  0  0  0  0  0  0  0  0  0
   -7.6753  -17.0536   17.7199 N   0  0  0  0  0  0  0  0  0  0  0  0
   -7.5801  -17.7348   16.5233 C   0  0  0  0  0  0  0  0  0  0  0  0
   -7.0014  -18.9147   16.6405 N   0  0  0  0  0  0  0  0  0  0  0  0
   -6.5391  -19.0250   17.9280 C   0  0  0  0  0  0  0  0  0  0  0  0
   -6.0046  -20.1460   18.6104 C   0  0  0  0  0  0  0  0  0  0  0  0
   -5.6921  -20.0759   19.9771 C   0  0  0  0  0  0  0  0  0  0  0  0
   -5.8651  -18.8834   20.6584 C   0  0  0  0  0  0  0  0  0  0  0  0
   -6.3566  -17.7526   19.9864 C   0  0  0  0  0  0  0  0  0  0  0  0
   -6.7379  -17.8261   18.6111 C   0  0  0  0  0  0  0  0  0  0  0  0
   -8.8766  -10.6185   13.3595 S   0  0  0  0  0  0  0  0  0  0  0  0
   -7.6648  -10.5330   12.1437 C   0  0  0  0  0  0  0  0  0  0  0  0
   -7.8158  -10.1871   10.8005 C   0  0  0  0  0  0  0  0  0  0  0  0
   -7.5679   -7.5428   11.4095 H   0  0  0  0  0  0  0  0  0  0  0  0
   -5.8310   -7.5842   11.4041 H   0  0  0  0  0  0  0  0  0  0  0  0
   -6.7079   -6.4447   10.3448 H   0  0  0  0  0  0  0  0  0  0  0  0
   -4.5403   -9.9339    9.9938 H   0  0  0  0  0  0  0  0  0  0  0  0
   -4.2706  -10.9000   12.1718 H   0  0  0  0  0  0  0  0  0  0  0  0
   -6.7831  -12.0602   17.0382 H   0  0  0  0  0  0  0  0  0  0  0  0
   -8.3629  -13.9745   17.1808 H   0  0  0  0  0  0  0  0  0  0  0  0
   -8.1161  -13.3518   18.9594 H   0  0  0  0  0  0  0  0  0  0  0  0
   -9.0741  -15.8743   19.0665 H   0  0  0  0  0  0  0  0  0  0  0  0
   -9.4792  -16.1458   17.3416 H   0  0  0  0  0  0  0  0  0  0  0  0
   -7.9695  -17.3352   15.6035 H   0  0  0  0  0  0  0  0  0  0  0  0
   -5.8791  -21.0760   18.0648 H   0  0  0  0  0  0  0  0  0  0  0  0
   -5.3163  -20.9558   20.4910 H   0  0  0  0  0  0  0  0  0  0  0  0
   -5.6576  -18.8247   21.7224 H   0  0  0  0  0  0  0  0  0  0  0  0
   -6.6099  -16.8868   20.5663 H   0  0  0  0  0  0  0  0  0  0  0  0
   -8.7935   -9.9909   10.3962 H   0  0  0  0  0  0  0  0  0  0  0  0
  1  2  1  0
  2  3  1  0
  3  4  2  0
  4  5  1  0
  5  6  2  0
  6  7  1  0
  7  8  2  0
  8  9  1  0
  9 10  1  0
 10 11  2  0
 10 12  1  0
 12 13  1  0
 13 14  1  0
 14 15  1  0
 15 16  2  0
 16 17  1  0
 17 18  2  0
 18 19  1  0
 19 20  2  0
 20 21  1  0
 21 22  2  0
  8 23  1  0
 23 24  1  0
 24 25  2  0
 25  3  1  0
 24  6  1  0
 22 14  1  0
 22 17  1  0
  1 26  1  0
  1 27  1  0
  1 28  1  0
  4 29  1  0
  5 30  1  0
  9 31  1  0
 12 32  1  0
 12 33  1  0
 13 34  1  0
 13 35  1  0
 15 36  1  0
 18 37  1  0
 19 38  1  0
 20 39  1  0
 21 40  1  0
 25 41  1  0
M  END
>  <Energy>  (585) 
435.24610512842116

>  <compound_id>  (585) 
32704

>  <target_id>  (585) 
1

>  <reference_id>  (585) 
52

>  <inspiration_ids>  (585) 
[69, 52]

>  <energy_score>  (585) 
387.89882373340924

>  <distance_score>  (585) 
13.04311922330186

>  <path>  (585) 
/opt/xchem-fragalysis-2/maxwin/BulkDock/SCRATCH/511015/C32704-P52/C32704-P52.minimised.mol

>  <scratch_subdir>  (585) 
/opt/xchem-fragalysis-2/maxwin/BulkDock/SCRATCH/511015/C32704-P52

>  <fragmenstein_runtime>  (585) 
30.327022075653076

>  <fragmenstein_outcome>  (585) 
too moved

>  <fragmenstein_mode>  (585) 
expansion

>  <fragmenstein_error>  (585) 


$$$$
C32705-P69
     RDKit          3D

 41 44  0  0  0  0  0  0  0  0999 V2000
   -9.1367  -10.3698    9.8949 C   0  0  0  0  0  0  0  0  0  0  0  0
   -7.8231  -10.4611   10.4301 O   0  0  0  0  0  0  0  0  0  0  0  0
   -7.4675  -11.7093   10.8894 C   0  0  0  0  0  0  0  0  0  0  0  0
   -6.1162  -12.0059   10.7696 C   0  0  0  0  0  0  0  0  0  0  0  0
   -5.6045  -13.2358   11.2292 C   0  0  0  0  0  0  0  0  0  0  0  0
   -6.4377  -14.1889   11.8764 C   0  0  0  0  0  0  0  0  0  0  0  0
   -6.0334  -15.3862   12.5216 N   0  0  0  0  0  0  0  0  0  0  0  0
   -7.0305  -16.0167   13.1393 C   0  0  0  0  0  0  0  0  0  0  0  0
   -6.8080  -16.8621   14.2752 N   0  0  0  0  0  0  0  0  0  0  0  0
   -7.6725  -17.9111   14.9032 C   0  0  0  0  0  0  0  0  0  0  0  0
   -8.7353  -18.3583   14.5580 O   0  0  0  0  0  0  0  0  0  0  0  0
   -7.0266  -18.3993   16.3640 C   0  0  0  0  0  0  0  0  0  0  0  0
   -5.8562  -19.3394   16.0843 C   0  0  0  0  0  0  0  0  0  0  0  0
   -7.9031  -19.0236   17.4661 N   0  0  0  0  0  0  0  0  0  0  0  0
   -9.0181  -19.8061   17.2569 C   0  0  0  0  0  0  0  0  0  0  0  0
   -9.4624  -20.3941   18.3488 N   0  0  0  0  0  0  0  0  0  0  0  0
   -8.6229  -20.0073   19.3527 C   0  0  0  0  0  0  0  0  0  0  0  0
   -8.6458  -20.3910   20.7157 C   0  0  0  0  0  0  0  0  0  0  0  0
   -7.7041  -19.8604   21.5985 C   0  0  0  0  0  0  0  0  0  0  0  0
   -6.7517  -18.9643   21.1191 C   0  0  0  0  0  0  0  0  0  0  0  0
   -6.6960  -18.5927   19.7527 C   0  0  0  0  0  0  0  0  0  0  0  0
   -7.6490  -19.1237   18.8604 C   0  0  0  0  0  0  0  0  0  0  0  0
   -8.5535  -15.2675   12.7873 S   0  0  0  0  0  0  0  0  0  0  0  0
   -7.7944  -13.8954   11.9767 C   0  0  0  0  0  0  0  0  0  0  0  0
   -8.3294  -12.6587   11.4802 C   0  0  0  0  0  0  0  0  0  0  0  0
   -9.4227  -11.2805    9.3548 H   0  0  0  0  0  0  0  0  0  0  0  0
   -9.1496   -9.5669    9.1614 H   0  0  0  0  0  0  0  0  0  0  0  0
   -9.8560  -10.1727   10.6928 H   0  0  0  0  0  0  0  0  0  0  0  0
   -5.4408  -11.2824   10.3180 H   0  0  0  0  0  0  0  0  0  0  0  0
   -4.5411  -13.4427   11.1456 H   0  0  0  0  0  0  0  0  0  0  0  0
   -5.9420  -16.7941   14.7884 H   0  0  0  0  0  0  0  0  0  0  0  0
   -6.6662  -17.4818   16.8468 H   0  0  0  0  0  0  0  0  0  0  0  0
   -5.1493  -18.8970   15.3754 H   0  0  0  0  0  0  0  0  0  0  0  0
   -5.3059  -19.5797   16.9998 H   0  0  0  0  0  0  0  0  0  0  0  0
   -6.2114  -20.2806   15.6501 H   0  0  0  0  0  0  0  0  0  0  0  0
   -9.4589  -19.9332   16.2761 H   0  0  0  0  0  0  0  0  0  0  0  0
   -9.4062  -21.0865   21.0546 H   0  0  0  0  0  0  0  0  0  0  0  0
   -7.7159  -20.1442   22.6460 H   0  0  0  0  0  0  0  0  0  0  0  0
   -6.0219  -18.5382   21.8070 H   0  0  0  0  0  0  0  0  0  0  0  0
   -5.9251  -17.9111   19.4103 H   0  0  0  0  0  0  0  0  0  0  0  0
   -9.3881  -12.4576   11.5998 H   0  0  0  0  0  0  0  0  0  0  0  0
  1  2  1  0
  2  3  1  0
  3  4  2  0
  4  5  1  0
  5  6  2  0
  6  7  1  0
  7  8  2  0
  8  9  1  0
  9 10  1  0
 10 11  2  0
 10 12  1  0
 12 13  1  0
 12 14  1  0
 14 15  1  0
 15 16  2  0
 16 17  1  0
 17 18  2  0
 18 19  1  0
 19 20  2  0
 20 21  1  0
 21 22  2  0
  8 23  1  0
 23 24  1  0
 24 25  2  0
 25  3  1  0
 24  6  1  0
 22 14  1  0
 22 17  1  0
  1 26  1  0
  1 27  1  0
  1 28  1  0
  4 29  1  0
  5 30  1  0
  9 31  1  0
 12 32  1  0
 13 33  1  0
 13 34  1  0
 13 35  1  0
 15 36  1  0
 18 37  1  0
 19 38  1  0
 20 39  1  0
 21 40  1  0
 25 41  1  0
M  END
>  <Energy>  (586) 
46.358977436249702

>  <compound_id>  (586) 
32705

>  <target_id>  (586) 
1

>  <reference_id>  (586) 
69

>  <inspiration_ids>  (586) 
[69, 52]

>  <energy_score>  (586) 
-64.33916163494547

>  <distance_score>  (586) 
13.600048935655362

>  <path>  (586) 
/opt/xchem-fragalysis-2/maxwin/BulkDock/SCRATCH/511015/C32705-P69/C32705-P69.minimised.mol

>  <scratch_subdir>  (586) 
/opt/xchem-fragalysis-2/maxwin/BulkDock/SCRATCH/511015/C32705-P69

>  <fragmenstein_runtime>  (586) 
30.68397092819214

>  <fragmenstein_outcome>  (586) 
too moved

>  <fragmenstein_mode>  (586) 
expansion

>  <fragmenstein_error>  (586) 


$$$$
C32705-P52
     RDKit          3D

 41 44  0  0  0  0  0  0  0  0999 V2000
   -5.5855   -6.8547   13.2991 C   0  0  0  0  0  0  0  0  0  0  0  0
   -5.3833   -7.7320   12.1939 O   0  0  0  0  0  0  0  0  0  0  0  0
   -5.0260   -9.0381   12.4513 C   0  0  0  0  0  0  0  0  0  0  0  0
   -5.3121   -9.9334   11.4209 C   0  0  0  0  0  0  0  0  0  0  0  0
   -5.0526  -11.3190   11.5528 C   0  0  0  0  0  0  0  0  0  0  0  0
   -4.4881  -11.8542   12.7430 C   0  0  0  0  0  0  0  0  0  0  0  0
   -4.3135  -13.2367   13.0914 N   0  0  0  0  0  0  0  0  0  0  0  0
   -3.8795  -13.3931   14.3327 C   0  0  0  0  0  0  0  0  0  0  0  0
   -3.7351  -14.5461   15.1590 N   0  0  0  0  0  0  0  0  0  0  0  0
   -4.6364  -15.7402   15.3526 C   0  0  0  0  0  0  0  0  0  0  0  0
   -5.6619  -16.0469   14.7935 O   0  0  0  0  0  0  0  0  0  0  0  0
   -4.0776  -16.9409   16.4678 C   0  0  0  0  0  0  0  0  0  0  0  0
   -2.6490  -16.7933   16.9832 C   0  0  0  0  0  0  0  0  0  0  0  0
   -5.0545  -17.5823   17.5044 N   0  0  0  0  0  0  0  0  0  0  0  0
   -6.2950  -18.0866   17.1255 C   0  0  0  0  0  0  0  0  0  0  0  0
   -6.9841  -18.6131   18.1142 N   0  0  0  0  0  0  0  0  0  0  0  0
   -6.1642  -18.5682   19.2029 C   0  0  0  0  0  0  0  0  0  0  0  0
   -6.4348  -19.0384   20.5111 C   0  0  0  0  0  0  0  0  0  0  0  0
   -5.4573  -18.9439   21.4991 C   0  0  0  0  0  0  0  0  0  0  0  0
   -4.2224  -18.3920   21.1760 C   0  0  0  0  0  0  0  0  0  0  0  0
   -3.9338  -17.9107   19.8728 C   0  0  0  0  0  0  0  0  0  0  0  0
   -4.9250  -17.9844   18.8662 C   0  0  0  0  0  0  0  0  0  0  0  0
   -3.3902  -11.8674   15.0326 S   0  0  0  0  0  0  0  0  0  0  0  0
   -4.1346  -10.9405   13.7378 C   0  0  0  0  0  0  0  0  0  0  0  0
   -4.3919   -9.5285   13.6089 C   0  0  0  0  0  0  0  0  0  0  0  0
   -4.6235   -6.5555   13.7255 H   0  0  0  0  0  0  0  0  0  0  0  0
   -6.0995   -5.9626   12.9318 H   0  0  0  0  0  0  0  0  0  0  0  0
   -6.2175   -7.3205   14.0626 H   0  0  0  0  0  0  0  0  0  0  0  0
   -5.7724   -9.5700   10.5022 H   0  0  0  0  0  0  0  0  0  0  0  0
   -5.3358  -11.9986   10.7533 H   0  0  0  0  0  0  0  0  0  0  0  0
   -3.0075  -14.5636   15.8536 H   0  0  0  0  0  0  0  0  0  0  0  0
   -4.0011  -17.7976   15.7732 H   0  0  0  0  0  0  0  0  0  0  0  0
   -1.9790  -16.4463   16.1903 H   0  0  0  0  0  0  0  0  0  0  0  0
   -2.5693  -16.0964   17.8195 H   0  0  0  0  0  0  0  0  0  0  0  0
   -2.2618  -17.7593   17.3268 H   0  0  0  0  0  0  0  0  0  0  0  0
   -6.6486  -18.0042   16.1043 H   0  0  0  0  0  0  0  0  0  0  0  0
   -7.4065  -19.4690   20.7277 H   0  0  0  0  0  0  0  0  0  0  0  0
   -5.6639  -19.2932   22.5060 H   0  0  0  0  0  0  0  0  0  0  0  0
   -3.4574  -18.3193   21.9466 H   0  0  0  0  0  0  0  0  0  0  0  0
   -2.9588  -17.4808   19.6755 H   0  0  0  0  0  0  0  0  0  0  0  0
   -4.1095   -8.8667   14.4206 H   0  0  0  0  0  0  0  0  0  0  0  0
  1  2  1  0
  2  3  1  0
  3  4  2  0
  4  5  1  0
  5  6  2  0
  6  7  1  0
  7  8  2  0
  8  9  1  0
  9 10  1  0
 10 11  2  0
 10 12  1  0
 12 13  1  0
 12 14  1  0
 14 15  1  0
 15 16  2  0
 16 17  1  0
 17 18  2  0
 18 19  1  0
 19 20  2  0
 20 21  1  0
 21 22  2  0
  8 23  1  0
 23 24  1  0
 24 25  2  0
 25  3  1  0
 24  6  1  0
 22 14  1  0
 22 17  1  0
  1 26  1  0
  1 27  1  0
  1 28  1  0
  4 29  1  0
  5 30  1  0
  9 31  1  0
 12 32  1  0
 13 33  1  0
 13 34  1  0
 13 35  1  0
 15 36  1  0
 18 37  1  0
 19 38  1  0
 20 39  1  0
 21 40  1  0
 25 41  1  0
M  END
>  <Energy>  (587) 
65.213312403303476

>  <compound_id>  (587) 
32705

>  <target_id>  (587) 
1

>  <reference_id>  (587) 
52

>  <inspiration_ids>  (587) 
[69, 52]

>  <energy_score>  (587) 
-45.48482666788823

>  <distance_score>  (587) 
13.291994747942448

>  <path>  (587) 
/opt/xchem-fragalysis-2/maxwin/BulkDock/SCRATCH/511015/C32705-P52/C32705-P52.minimised.mol

>  <scratch_subdir>  (587) 
/opt/xchem-fragalysis-2/maxwin/BulkDock/SCRATCH/511015/C32705-P52

>  <fragmenstein_runtime>  (587) 
30.753755569458008

>  <fragmenstein_outcome>  (587) 
too moved

>  <fragmenstein_mode>  (587) 
expansion

>  <fragmenstein_error>  (587) 


$$$$
C32688-P69
     RDKit          3D

 47 51  0  0  0  0  0  0  0  0999 V2000
  -10.9802  -11.8418   18.7088 O   0  0  0  0  0  0  0  0  0  0  0  0
  -10.1199  -12.5825   19.0422 C   0  0  0  0  0  0  0  0  0  0  0  0
  -10.6677  -13.3756   21.2254 C   0  0  0  0  0  0  0  0  0  0  0  0
  -11.1220  -14.9418   23.0129 C   0  0  0  0  0  0  0  0  0  0  0  0
  -10.9328  -16.4793   24.6396 N   0  0  0  0  0  0  0  0  0  0  0  0
   -9.4096  -16.2711   25.6226 C   0  0  0  0  0  0  0  0  0  0  0  0
   -8.5442  -16.7499   26.5462 N   0  0  0  0  0  0  0  0  0  0  0  0
   -9.1737  -17.7545   27.0669 C   0  0  0  0  0  0  0  0  0  0  0  0
   -9.0248  -19.1785   28.1575 C   0  0  0  0  0  0  0  0  0  0  0  0
  -10.2888  -20.2376   29.2963 C   0  0  0  0  0  0  0  0  0  0  0  0
  -11.9110  -19.3453   29.0655 C   0  0  0  0  0  0  0  0  0  0  0  0
  -11.3792  -17.6990   28.2455 C   0  0  0  0  0  0  0  0  0  0  0  0
  -10.4494  -16.9914   26.6278 C   0  0  0  0  0  0  0  0  0  0  0  0
   -8.7619  -12.5525   17.6279 N   0  0  0  0  0  0  0  0  0  0  0  0
   -7.5328  -11.4709   17.7891 C   0  0  0  0  0  0  0  0  0  0  0  0
   -6.6328  -10.3070   16.5254 C   0  0  0  0  0  0  0  0  0  0  0  0
   -7.8039  -10.2513   15.0090 C   0  0  0  0  0  0  0  0  0  0  0  0
   -8.7460  -11.6124   15.6944 C   0  0  0  0  0  0  0  0  0  0  0  0
  -10.1065  -10.1212   15.0010 C   0  0  0  0  0  0  0  0  0  0  0  0
  -10.0504   -8.7490   14.6206 N   0  0  0  0  0  0  0  0  0  0  0  0
  -11.3628   -7.5002   14.6971 C   0  0  0  0  0  0  0  0  0  0  0  0
  -11.2353   -6.0421   14.6927 C   0  0  0  0  0  0  0  0  0  0  0  0
  -12.3391   -5.2424   14.4069 C   0  0  0  0  0  0  0  0  0  0  0  0
  -13.5373   -5.8437   14.0487 C   0  0  0  0  0  0  0  0  0  0  0  0
  -13.6576   -7.2406   14.0033 C   0  0  0  0  0  0  0  0  0  0  0  0
  -12.5438   -8.0206   14.3494 C   0  0  0  0  0  0  0  0  0  0  0  0
  -12.3077   -9.6294   14.5899 S   0  0  0  0  0  0  0  0  0  0  0  0
  -10.3389  -13.8382   19.8736 H   0  0  0  0  0  0  0  0  0  0  0  0
   -9.7392  -12.8901   21.6227 H   0  0  0  0  0  0  0  0  0  0  0  0
  -12.0088  -14.6737   23.5906 H   0  0  0  0  0  0  0  0  0  0  0  0
  -11.7555  -15.7320   22.5237 H   0  0  0  0  0  0  0  0  0  0  0  0
   -9.7806  -17.2053   25.0230 H   0  0  0  0  0  0  0  0  0  0  0  0
   -8.0264  -19.5116   27.8104 H   0  0  0  0  0  0  0  0  0  0  0  0
  -10.3734  -21.3137   29.3199 H   0  0  0  0  0  0  0  0  0  0  0  0
  -12.8174  -19.7515   29.4480 H   0  0  0  0  0  0  0  0  0  0  0  0
  -12.0659  -17.1007   28.9179 H   0  0  0  0  0  0  0  0  0  0  0  0
   -6.7456  -12.1797   18.1003 H   0  0  0  0  0  0  0  0  0  0  0  0
   -7.5336  -11.1186   18.8470 H   0  0  0  0  0  0  0  0  0  0  0  0
   -6.7138   -9.2858   16.9492 H   0  0  0  0  0  0  0  0  0  0  0  0
   -5.5897  -10.5199   16.4377 H   0  0  0  0  0  0  0  0  0  0  0  0
   -8.0849   -9.2605   14.7411 H   0  0  0  0  0  0  0  0  0  0  0  0
   -7.5111  -10.5329   13.9810 H   0  0  0  0  0  0  0  0  0  0  0  0
   -9.1399  -12.3344   14.9498 H   0  0  0  0  0  0  0  0  0  0  0  0
  -10.2645   -5.5795   14.8538 H   0  0  0  0  0  0  0  0  0  0  0  0
  -12.2457   -4.1603   14.4325 H   0  0  0  0  0  0  0  0  0  0  0  0
  -14.4042   -5.2280   13.8205 H   0  0  0  0  0  0  0  0  0  0  0  0
  -14.6070   -7.7096   13.7621 H   0  0  0  0  0  0  0  0  0  0  0  0
  1  2  2  0
  2  3  1  0
  3  4  1  0
  4  5  1  0
  5  6  1  0
  6  7  2  0
  7  8  1  0
  8  9  2  0
  9 10  1  0
 10 11  2  0
 11 12  1  0
 12 13  2  0
  2 14  1  0
 14 15  1  0
 15 16  1  0
 16 17  1  0
 17 18  1  0
 18 19  1  0
 19 20  2  0
 20 21  1  0
 21 22  2  0
 22 23  1  0
 23 24  2  0
 24 25  1  0
 25 26  2  0
 26 27  1  0
 13  5  1  0
 18 14  1  0
 27 19  1  0
 13  8  1  0
 26 21  1  0
  3 28  1  0
  3 29  1  0
  4 30  1  0
  4 31  1  0
  6 32  1  0
  9 33  1  0
 10 34  1  0
 11 35  1  0
 12 36  1  0
 15 37  1  0
 15 38  1  0
 16 39  1  0
 16 40  1  0
 17 41  1  0
 17 42  1  0
 18 43  1  0
 22 44  1  0
 23 45  1  0
 24 46  1  0
 25 47  1  0
M  END
>  <Energy>  (588) 
3019.0493726804179

>  <compound_id>  (588) 
32688

>  <target_id>  (588) 
1

>  <reference_id>  (588) 
69

>  <inspiration_ids>  (588) 
[69, 52]

>  <energy_score>  (588) 
2930.5378059690074

>  <distance_score>  (588) 
9.663205366338753

>  <path>  (588) 
/opt/xchem-fragalysis-2/maxwin/BulkDock/SCRATCH/511015/C32688-P69/C32688-P69.minimised.mol

>  <scratch_subdir>  (588) 
/opt/xchem-fragalysis-2/maxwin/BulkDock/SCRATCH/511015/C32688-P69

>  <fragmenstein_runtime>  (588) 
35.47581219673157

>  <fragmenstein_outcome>  (588) 
too moved

>  <fragmenstein_mode>  (588) 
expansion

>  <fragmenstein_error>  (588) 


$$$$
C32688-P52
     RDKit          3D

 47 51  0  0  0  0  0  0  0  0999 V2000
   -9.3082  -13.2119   18.8402 O   0  0  0  0  0  0  0  0  0  0  0  0
   -8.7056  -13.7024   17.9238 C   0  0  0  0  0  0  0  0  0  0  0  0
   -8.5135  -15.7769   17.9867 C   0  0  0  0  0  0  0  0  0  0  0  0
   -7.0293  -16.9748   18.8486 C   0  0  0  0  0  0  0  0  0  0  0  0
   -6.7351  -18.4508   19.4644 N   0  0  0  0  0  0  0  0  0  0  0  0
   -5.8885  -19.3338   18.8237 C   0  0  0  0  0  0  0  0  0  0  0  0
   -5.9379  -20.5505   19.3099 N   0  0  0  0  0  0  0  0  0  0  0  0
   -6.4231  -20.3765   20.5620 C   0  0  0  0  0  0  0  0  0  0  0  0
   -6.4721  -21.3355   21.5966 C   0  0  0  0  0  0  0  0  0  0  0  0
   -6.6612  -20.9121   22.9001 C   0  0  0  0  0  0  0  0  0  0  0  0
   -6.8042  -19.5537   23.1316 C   0  0  0  0  0  0  0  0  0  0  0  0
   -6.8941  -18.5899   22.0867 C   0  0  0  0  0  0  0  0  0  0  0  0
   -6.7280  -19.0197   20.7670 C   0  0  0  0  0  0  0  0  0  0  0  0
   -7.8961  -12.9705   16.6569 N   0  0  0  0  0  0  0  0  0  0  0  0
   -6.4380  -12.7065   16.9770 C   0  0  0  0  0  0  0  0  0  0  0  0
   -5.5056  -11.4996   17.0683 C   0  0  0  0  0  0  0  0  0  0  0  0
   -6.2632  -10.7685   16.0723 C   0  0  0  0  0  0  0  0  0  0  0  0
   -7.7421  -11.1601   16.1380 C   0  0  0  0  0  0  0  0  0  0  0  0
   -7.7493  -10.3015   14.3202 C   0  0  0  0  0  0  0  0  0  0  0  0
   -8.6180  -10.0719   13.2161 N   0  0  0  0  0  0  0  0  0  0  0  0
   -7.8574   -9.4329   12.0122 C   0  0  0  0  0  0  0  0  0  0  0  0
   -8.1930   -8.8344   10.8283 C   0  0  0  0  0  0  0  0  0  0  0  0
   -7.0465   -8.3635    9.6317 C   0  0  0  0  0  0  0  0  0  0  0  0
   -5.9936   -9.0926    9.3083 C   0  0  0  0  0  0  0  0  0  0  0  0
   -5.6120   -9.7415   10.4074 C   0  0  0  0  0  0  0  0  0  0  0  0
   -6.4195   -9.7447   11.7105 C   0  0  0  0  0  0  0  0  0  0  0  0
   -6.2684  -10.8884   12.8003 S   0  0  0  0  0  0  0  0  0  0  0  0
   -9.3065  -15.7808   18.7324 H   0  0  0  0  0  0  0  0  0  0  0  0
   -8.6931  -16.2871   17.0449 H   0  0  0  0  0  0  0  0  0  0  0  0
   -6.8292  -16.5013   19.8270 H   0  0  0  0  0  0  0  0  0  0  0  0
   -6.0895  -17.0460   18.2709 H   0  0  0  0  0  0  0  0  0  0  0  0
   -5.2777  -19.0397   17.9841 H   0  0  0  0  0  0  0  0  0  0  0  0
   -6.2490  -22.3721   21.3704 H   0  0  0  0  0  0  0  0  0  0  0  0
   -6.6192  -21.6224   23.7194 H   0  0  0  0  0  0  0  0  0  0  0  0
   -6.8112  -19.2465   24.1645 H   0  0  0  0  0  0  0  0  0  0  0  0
   -7.0402  -17.5401   22.2798 H   0  0  0  0  0  0  0  0  0  0  0  0
   -5.9481  -12.8392   16.0687 H   0  0  0  0  0  0  0  0  0  0  0  0
   -6.0494  -13.7366   16.6936 H   0  0  0  0  0  0  0  0  0  0  0  0
   -5.1584  -11.3346   18.1117 H   0  0  0  0  0  0  0  0  0  0  0  0
   -4.4466  -11.4951   16.7488 H   0  0  0  0  0  0  0  0  0  0  0  0
   -5.5015  -10.3457   15.4543 H   0  0  0  0  0  0  0  0  0  0  0  0
   -6.5212   -9.7337   16.0201 H   0  0  0  0  0  0  0  0  0  0  0  0
   -8.2200  -10.6557   16.9533 H   0  0  0  0  0  0  0  0  0  0  0  0
   -9.0265   -9.5238   10.4806 H   0  0  0  0  0  0  0  0  0  0  0  0
   -6.7994   -7.2870    9.5681 H   0  0  0  0  0  0  0  0  0  0  0  0
   -5.6845   -9.3950    8.3301 H   0  0  0  0  0  0  0  0  0  0  0  0
   -4.8302  -10.4518   10.2190 H   0  0  0  0  0  0  0  0  0  0  0  0
  1  2  2  0
  2  3  1  0
  3  4  1  0
  4  5  1  0
  5  6  1  0
  6  7  2  0
  7  8  1  0
  8  9  2  0
  9 10  1  0
 10 11  2  0
 11 12  1  0
 12 13  2  0
  2 14  1  0
 14 15  1  0
 15 16  1  0
 16 17  1  0
 17 18  1  0
 18 19  1  0
 19 20  2  0
 20 21  1  0
 21 22  2  0
 22 23  1  0
 23 24  2  0
 24 25  1  0
 25 26  2  0
 26 27  1  0
 13  5  1  0
 18 14  1  0
 27 19  1  0
 13  8  1  0
 26 21  1  0
  3 28  1  0
  3 29  1  0
  4 30  1  0
  4 31  1  0
  6 32  1  0
  9 33  1  0
 10 34  1  0
 11 35  1  0
 12 36  1  0
 15 37  1  0
 15 38  1  0
 16 39  1  0
 16 40  1  0
 17 41  1  0
 17 42  1  0
 18 43  1  0
 22 44  1  0
 23 45  1  0
 24 46  1  0
 25 47  1  0
M  END
>  <Energy>  (589) 
828.07112509179035

>  <compound_id>  (589) 
32688

>  <target_id>  (589) 
1

>  <reference_id>  (589) 
52

>  <inspiration_ids>  (589) 
[69, 52]

>  <energy_score>  (589) 
739.5595583804572

>  <distance_score>  (589) 
11.450287450976068

>  <path>  (589) 
/opt/xchem-fragalysis-2/maxwin/BulkDock/SCRATCH/511015/C32688-P52/C32688-P52.minimised.mol

>  <scratch_subdir>  (589) 
/opt/xchem-fragalysis-2/maxwin/BulkDock/SCRATCH/511015/C32688-P52

>  <fragmenstein_runtime>  (589) 
53.42650270462036

>  <fragmenstein_outcome>  (589) 
too moved

>  <fragmenstein_mode>  (589) 
expansion

>  <fragmenstein_error>  (589) 


$$$$
C32706-P69
     RDKit          3D

 33 36  0  0  0  0  0  0  0  0999 V2000
   -2.3412   -8.0516   16.8254 C   0  0  0  0  0  0  0  0  0  0  0  0
   -1.7814   -9.4368   16.6923 C   0  0  0  0  0  0  0  0  0  0  0  0
   -1.2344   -9.8687   15.4855 C   0  0  0  0  0  0  0  0  0  0  0  0
   -0.7399  -11.1776   15.3577 C   0  0  0  0  0  0  0  0  0  0  0  0
   -0.8445  -12.0741   16.4559 C   0  0  0  0  0  0  0  0  0  0  0  0
   -0.4514  -13.7639   16.5672 S   0  0  0  0  0  0  0  0  0  0  0  0
   -1.0197  -13.8738   18.2355 C   0  0  0  0  0  0  0  0  0  0  0  0
   -1.0295  -15.3396   18.9485 C   0  0  0  0  0  0  0  0  0  0  0  0
   -1.5411  -15.6355   20.3513 N   0  0  0  0  0  0  0  0  0  0  0  0
   -1.0267  -15.0338   21.4747 C   0  0  0  0  0  0  0  0  0  0  0  0
   -1.5098  -15.5216   22.5999 N   0  0  0  0  0  0  0  0  0  0  0  0
   -2.2942  -16.5819   22.2485 C   0  0  0  0  0  0  0  0  0  0  0  0
   -3.0130  -17.4587   23.0935 C   0  0  0  0  0  0  0  0  0  0  0  0
   -3.7617  -18.4900   22.5318 C   0  0  0  0  0  0  0  0  0  0  0  0
   -3.7811  -18.6366   21.1472 C   0  0  0  0  0  0  0  0  0  0  0  0
   -3.0671  -17.7645   20.2859 C   0  0  0  0  0  0  0  0  0  0  0  0
   -2.3253  -16.7090   20.8499 C   0  0  0  0  0  0  0  0  0  0  0  0
   -1.4018  -12.6834   18.6834 N   0  0  0  0  0  0  0  0  0  0  0  0
   -1.3758  -11.6764   17.6785 C   0  0  0  0  0  0  0  0  0  0  0  0
   -1.8414  -10.3360   17.7826 C   0  0  0  0  0  0  0  0  0  0  0  0
   -3.3619   -8.0218   16.4317 H   0  0  0  0  0  0  0  0  0  0  0  0
   -1.7258   -7.3315   16.2762 H   0  0  0  0  0  0  0  0  0  0  0  0
   -2.3603   -7.7323   17.8727 H   0  0  0  0  0  0  0  0  0  0  0  0
   -1.1859   -9.1984   14.6300 H   0  0  0  0  0  0  0  0  0  0  0  0
   -0.3269  -11.5183   14.4123 H   0  0  0  0  0  0  0  0  0  0  0  0
    0.0150  -15.6771   18.9810 H   0  0  0  0  0  0  0  0  0  0  0  0
   -1.5867  -16.0218   18.2958 H   0  0  0  0  0  0  0  0  0  0  0  0
   -0.3134  -14.2212   21.4028 H   0  0  0  0  0  0  0  0  0  0  0  0
   -2.9796  -17.3125   24.1675 H   0  0  0  0  0  0  0  0  0  0  0  0
   -4.3274  -19.1639   23.1671 H   0  0  0  0  0  0  0  0  0  0  0  0
   -4.3704  -19.4391   20.7064 H   0  0  0  0  0  0  0  0  0  0  0  0
   -3.1232  -17.9002   19.2100 H   0  0  0  0  0  0  0  0  0  0  0  0
   -2.2637  -10.0236   18.7354 H   0  0  0  0  0  0  0  0  0  0  0  0
  1  2  1  0
  2  3  2  0
  3  4  1  0
  4  5  2  0
  5  6  1  0
  6  7  1  0
  7  8  1  0
  8  9  1  0
  9 10  1  0
 10 11  2  0
 11 12  1  0
 12 13  2  0
 13 14  1  0
 14 15  2  0
 15 16  1  0
 16 17  2  0
  7 18  2  0
 18 19  1  0
 19 20  2  0
 20  2  1  0
 19  5  1  0
 17  9  1  0
 17 12  1  0
  1 21  1  0
  1 22  1  0
  1 23  1  0
  3 24  1  0
  4 25  1  0
  8 26  1  0
  8 27  1  0
 10 28  1  0
 13 29  1  0
 14 30  1  0
 15 31  1  0
 16 32  1  0
 20 33  1  0
M  END
>  <Energy>  (590) 
64.993364001446835

>  <compound_id>  (590) 
32706

>  <target_id>  (590) 
1

>  <reference_id>  (590) 
69

>  <inspiration_ids>  (590) 
[69, 52]

>  <energy_score>  (590) 
-36.15566365193058

>  <distance_score>  (590) 
15.20278555388913

>  <path>  (590) 
/opt/xchem-fragalysis-2/maxwin/BulkDock/SCRATCH/511015/C32706-P69/C32706-P69.minimised.mol

>  <scratch_subdir>  (590) 
/opt/xchem-fragalysis-2/maxwin/BulkDock/SCRATCH/511015/C32706-P69

>  <fragmenstein_runtime>  (590) 
26.35936737060547

>  <fragmenstein_outcome>  (590) 
too moved

>  <fragmenstein_mode>  (590) 
expansion

>  <fragmenstein_error>  (590) 


$$$$
C32706-P52
     RDKit          3D

 33 36  0  0  0  0  0  0  0  0999 V2000
  -15.3691   -7.8607   15.3840 C   0  0  0  0  0  0  0  0  0  0  0  0
  -14.5229   -9.0826   15.1787 C   0  0  0  0  0  0  0  0  0  0  0  0
  -14.3320   -9.6153   13.9073 C   0  0  0  0  0  0  0  0  0  0  0  0
  -13.5913  -10.7892   13.7436 C   0  0  0  0  0  0  0  0  0  0  0  0
  -12.9835  -11.3872   14.8757 C   0  0  0  0  0  0  0  0  0  0  0  0
  -12.0253  -12.7829   14.9217 S   0  0  0  0  0  0  0  0  0  0  0  0
  -11.1955  -12.3401   16.9659 C   0  0  0  0  0  0  0  0  0  0  0  0
  -10.3740  -13.5834   18.2886 C   0  0  0  0  0  0  0  0  0  0  0  0
  -10.8287  -15.4019   18.8193 N   0  0  0  0  0  0  0  0  0  0  0  0
  -12.4453  -16.3497   19.0565 C   0  0  0  0  0  0  0  0  0  0  0  0
  -12.4909  -17.5537   18.5382 N   0  0  0  0  0  0  0  0  0  0  0  0
  -11.1820  -17.8054   18.6118 C   0  0  0  0  0  0  0  0  0  0  0  0
  -10.4043  -19.5354   18.2524 C   0  0  0  0  0  0  0  0  0  0  0  0
   -8.9650  -20.1248   19.3627 C   0  0  0  0  0  0  0  0  0  0  0  0
   -7.9913  -18.9527   20.4671 C   0  0  0  0  0  0  0  0  0  0  0  0
   -8.6005  -17.1901   20.8733 C   0  0  0  0  0  0  0  0  0  0  0  0
  -10.0461  -16.4718   19.6236 C   0  0  0  0  0  0  0  0  0  0  0  0
  -12.0959  -11.3218   17.1179 N   0  0  0  0  0  0  0  0  0  0  0  0
  -13.0904  -10.8671   16.1441 C   0  0  0  0  0  0  0  0  0  0  0  0
  -13.9340   -9.7212   16.2952 C   0  0  0  0  0  0  0  0  0  0  0  0
  -15.5569   -7.3421   14.4384 H   0  0  0  0  0  0  0  0  0  0  0  0
  -14.8667   -7.1564   16.0547 H   0  0  0  0  0  0  0  0  0  0  0  0
  -16.3332   -8.1431   15.8182 H   0  0  0  0  0  0  0  0  0  0  0  0
  -14.7851   -9.1462   13.0370 H   0  0  0  0  0  0  0  0  0  0  0  0
  -13.4638  -11.2282   12.7581 H   0  0  0  0  0  0  0  0  0  0  0  0
   -9.2629  -13.6282   18.1704 H   0  0  0  0  0  0  0  0  0  0  0  0
  -10.2783  -13.1373   19.2556 H   0  0  0  0  0  0  0  0  0  0  0  0
  -13.0815  -16.0328   19.9240 H   0  0  0  0  0  0  0  0  0  0  0  0
  -11.0648  -20.2539   17.7678 H   0  0  0  0  0  0  0  0  0  0  0  0
   -8.6101  -21.1471   19.2365 H   0  0  0  0  0  0  0  0  0  0  0  0
   -7.0797  -19.3052   20.9486 H   0  0  0  0  0  0  0  0  0  0  0  0
   -7.8194  -16.4822   21.1280 H   0  0  0  0  0  0  0  0  0  0  0  0
  -14.0166   -9.2683   17.2786 H   0  0  0  0  0  0  0  0  0  0  0  0
  1  2  1  0
  2  3  2  0
  3  4  1  0
  4  5  2  0
  5  6  1  0
  6  7  1  0
  7  8  1  0
  8  9  1  0
  9 10  1  0
 10 11  2  0
 11 12  1  0
 12 13  2  0
 13 14  1  0
 14 15  2  0
 15 16  1  0
 16 17  2  0
  7 18  2  0
 18 19  1  0
 19 20  2  0
 20  2  1  0
 19  5  1  0
 17  9  1  0
 17 12  1  0
  1 21  1  0
  1 22  1  0
  1 23  1  0
  3 24  1  0
  4 25  1  0
  8 26  1  0
  8 27  1  0
 10 28  1  0
 13 29  1  0
 14 30  1  0
 15 31  1  0
 16 32  1  0
 20 33  1  0
M  END
>  <Energy>  (591) 
956.50064150618027

>  <compound_id>  (591) 
32706

>  <target_id>  (591) 
1

>  <reference_id>  (591) 
52

>  <inspiration_ids>  (591) 
[69, 52]

>  <energy_score>  (591) 
855.3516138528066

>  <distance_score>  (591) 
14.144557463389098

>  <path>  (591) 
/opt/xchem-fragalysis-2/maxwin/BulkDock/SCRATCH/511015/C32706-P52/C32706-P52.minimised.mol

>  <scratch_subdir>  (591) 
/opt/xchem-fragalysis-2/maxwin/BulkDock/SCRATCH/511015/C32706-P52

>  <fragmenstein_runtime>  (591) 
23.53382897377014

>  <fragmenstein_outcome>  (591) 
too moved

>  <fragmenstein_mode>  (591) 
expansion

>  <fragmenstein_error>  (591) 


$$$$
C32707-P69
     RDKit          3D

 38 41  0  0  0  0  0  0  0  0999 V2000
   -4.8040   -6.0486   14.0115 C   0  0  0  0  0  0  0  0  0  0  0  0
   -3.7699   -5.9763   14.9979 O   0  0  0  0  0  0  0  0  0  0  0  0
   -3.1517   -7.1749   15.2892 C   0  0  0  0  0  0  0  0  0  0  0  0
   -2.7551   -8.0921   14.3234 C   0  0  0  0  0  0  0  0  0  0  0  0
   -2.1077   -9.2942   14.7031 C   0  0  0  0  0  0  0  0  0  0  0  0
   -1.8773   -9.6263   16.0731 C   0  0  0  0  0  0  0  0  0  0  0  0
   -1.3656  -10.8454   16.6140 N   0  0  0  0  0  0  0  0  0  0  0  0
   -1.3872  -10.8675   17.9448 C   0  0  0  0  0  0  0  0  0  0  0  0
   -1.0408  -12.0030   18.7351 N   0  0  0  0  0  0  0  0  0  0  0  0
   -1.1401  -12.2391   20.2130 C   0  0  0  0  0  0  0  0  0  0  0  0
   -1.5368  -11.5214   21.0952 O   0  0  0  0  0  0  0  0  0  0  0  0
   -0.5018  -13.6694   20.7077 C   0  0  0  0  0  0  0  0  0  0  0  0
   -1.2852  -14.7565   21.4454 N   0  0  0  0  0  0  0  0  0  0  0  0
   -1.7921  -15.8570   20.7657 C   0  0  0  0  0  0  0  0  0  0  0  0
   -2.4079  -16.7220   21.5364 N   0  0  0  0  0  0  0  0  0  0  0  0
   -2.2025  -16.2925   22.8139 C   0  0  0  0  0  0  0  0  0  0  0  0
   -2.6661  -16.8808   24.0115 C   0  0  0  0  0  0  0  0  0  0  0  0
   -2.3718  -16.2709   25.2278 C   0  0  0  0  0  0  0  0  0  0  0  0
   -1.6207  -15.0961   25.2372 C   0  0  0  0  0  0  0  0  0  0  0  0
   -1.1492  -14.4880   24.0453 C   0  0  0  0  0  0  0  0  0  0  0  0
   -1.4581  -15.0905   22.8123 C   0  0  0  0  0  0  0  0  0  0  0  0
   -1.8102   -9.3336   18.6005 S   0  0  0  0  0  0  0  0  0  0  0  0
   -2.2389   -8.6759   17.0236 C   0  0  0  0  0  0  0  0  0  0  0  0
   -2.8521   -7.4374   16.6448 C   0  0  0  0  0  0  0  0  0  0  0  0
   -5.3976   -5.1363   14.0958 H   0  0  0  0  0  0  0  0  0  0  0  0
   -5.4682   -6.9002   14.1962 H   0  0  0  0  0  0  0  0  0  0  0  0
   -4.3772   -6.1089   13.0068 H   0  0  0  0  0  0  0  0  0  0  0  0
   -2.9185   -7.9048   13.2664 H   0  0  0  0  0  0  0  0  0  0  0  0
   -1.8201  -10.0144   13.9414 H   0  0  0  0  0  0  0  0  0  0  0  0
   -0.7388  -12.8531   18.2818 H   0  0  0  0  0  0  0  0  0  0  0  0
   -0.0634  -14.1765   19.8406 H   0  0  0  0  0  0  0  0  0  0  0  0
    0.3209  -13.4255   21.3910 H   0  0  0  0  0  0  0  0  0  0  0  0
   -1.6974  -15.9553   19.6917 H   0  0  0  0  0  0  0  0  0  0  0  0
   -3.2568  -17.7894   23.9660 H   0  0  0  0  0  0  0  0  0  0  0  0
   -2.7268  -16.7057   26.1576 H   0  0  0  0  0  0  0  0  0  0  0  0
   -1.3937  -14.6213   26.1911 H   0  0  0  0  0  0  0  0  0  0  0  0
   -0.5888  -13.5584   24.0924 H   0  0  0  0  0  0  0  0  0  0  0  0
   -3.1300   -6.7186   17.4114 H   0  0  0  0  0  0  0  0  0  0  0  0
  1  2  1  0
  2  3  1  0
  3  4  2  0
  4  5  1  0
  5  6  2  0
  6  7  1  0
  7  8  2  0
  8  9  1  0
  9 10  1  0
 10 11  2  0
 10 12  1  0
 12 13  1  0
 13 14  1  0
 14 15  2  0
 15 16  1  0
 16 17  2  0
 17 18  1  0
 18 19  2  0
 19 20  1  0
 20 21  2  0
  8 22  1  0
 22 23  1  0
 23 24  2  0
 24  3  1  0
 23  6  1  0
 21 13  1  0
 21 16  1  0
  1 25  1  0
  1 26  1  0
  1 27  1  0
  4 28  1  0
  5 29  1  0
  9 30  1  0
 12 31  1  0
 12 32  1  0
 14 33  1  0
 17 34  1  0
 18 35  1  0
 19 36  1  0
 20 37  1  0
 24 38  1  0
M  END
>  <Energy>  (592) 
40.138736409773223

>  <compound_id>  (592) 
32707

>  <target_id>  (592) 
1

>  <reference_id>  (592) 
69

>  <inspiration_ids>  (592) 
[69, 52]

>  <energy_score>  (592) 
-44.478278642633256

>  <distance_score>  (592) 
13.75377147167255

>  <path>  (592) 
/opt/xchem-fragalysis-2/maxwin/BulkDock/SCRATCH/511015/C32707-P69/C32707-P69.minimised.mol

>  <scratch_subdir>  (592) 
/opt/xchem-fragalysis-2/maxwin/BulkDock/SCRATCH/511015/C32707-P69

>  <fragmenstein_runtime>  (592) 
38.54154443740845

>  <fragmenstein_outcome>  (592) 
too moved

>  <fragmenstein_mode>  (592) 
expansion

>  <fragmenstein_error>  (592) 


$$$$
C32707-P52
     RDKit          3D

 38 41  0  0  0  0  0  0  0  0999 V2000
   -6.2066   -6.3948   12.2965 C   0  0  0  0  0  0  0  0  0  0  0  0
   -4.8674   -6.9485   12.4398 O   0  0  0  0  0  0  0  0  0  0  0  0
   -4.7826   -7.9365   13.3933 C   0  0  0  0  0  0  0  0  0  0  0  0
   -3.9670   -9.0728   13.2565 C   0  0  0  0  0  0  0  0  0  0  0  0
   -4.0910  -10.2265   14.1404 C   0  0  0  0  0  0  0  0  0  0  0  0
   -5.1836  -10.2805   15.0461 C   0  0  0  0  0  0  0  0  0  0  0  0
   -5.8056  -11.3388   15.9896 N   0  0  0  0  0  0  0  0  0  0  0  0
   -7.1624  -11.1816   16.4022 C   0  0  0  0  0  0  0  0  0  0  0  0
   -8.1092  -12.5394   16.9158 N   0  0  0  0  0  0  0  0  0  0  0  0
   -8.2442  -13.2928   18.4060 C   0  0  0  0  0  0  0  0  0  0  0  0
   -7.7404  -12.8889   19.3725 O   0  0  0  0  0  0  0  0  0  0  0  0
   -9.0556  -15.0688   18.7774 C   0  0  0  0  0  0  0  0  0  0  0  0
   -7.9601  -16.3718   19.8257 N   0  0  0  0  0  0  0  0  0  0  0  0
   -7.8227  -16.8011   21.1620 C   0  0  0  0  0  0  0  0  0  0  0  0
   -7.3562  -17.9544   21.5365 N   0  0  0  0  0  0  0  0  0  0  0  0
   -6.5793  -18.2682   20.5253 C   0  0  0  0  0  0  0  0  0  0  0  0
   -5.7179  -19.3758   20.5372 C   0  0  0  0  0  0  0  0  0  0  0  0
   -5.0831  -19.7286   19.3704 C   0  0  0  0  0  0  0  0  0  0  0  0
   -5.3575  -19.0032   18.2201 C   0  0  0  0  0  0  0  0  0  0  0  0
   -6.2266  -17.8851   18.1964 C   0  0  0  0  0  0  0  0  0  0  0  0
   -6.8130  -17.4150   19.3993 C   0  0  0  0  0  0  0  0  0  0  0  0
   -7.4207   -9.6048   15.2612 S   0  0  0  0  0  0  0  0  0  0  0  0
   -5.8895   -9.1191   15.0230 C   0  0  0  0  0  0  0  0  0  0  0  0
   -5.5978   -7.8694   14.4885 C   0  0  0  0  0  0  0  0  0  0  0  0
   -6.9847   -7.1517   12.4559 H   0  0  0  0  0  0  0  0  0  0  0  0
   -6.3410   -5.5463   12.9716 H   0  0  0  0  0  0  0  0  0  0  0  0
   -6.3455   -6.0646   11.2710 H   0  0  0  0  0  0  0  0  0  0  0  0
   -3.2484   -9.1196   12.4402 H   0  0  0  0  0  0  0  0  0  0  0  0
   -3.4466  -11.0894   14.0088 H   0  0  0  0  0  0  0  0  0  0  0  0
   -8.6876  -13.0154   16.2628 H   0  0  0  0  0  0  0  0  0  0  0  0
  -10.0719  -15.4307   18.7491 H   0  0  0  0  0  0  0  0  0  0  0  0
   -8.6947  -15.6074   17.8521 H   0  0  0  0  0  0  0  0  0  0  0  0
   -8.0244  -16.2384   22.0071 H   0  0  0  0  0  0  0  0  0  0  0  0
   -5.5947  -19.9540   21.4459 H   0  0  0  0  0  0  0  0  0  0  0  0
   -4.4201  -20.5873   19.3390 H   0  0  0  0  0  0  0  0  0  0  0  0
   -4.9139  -19.3298   17.2794 H   0  0  0  0  0  0  0  0  0  0  0  0
   -6.4890  -17.5011   17.2158 H   0  0  0  0  0  0  0  0  0  0  0  0
   -6.2711   -7.0377   14.6611 H   0  0  0  0  0  0  0  0  0  0  0  0
  1  2  1  0
  2  3  1  0
  3  4  2  0
  4  5  1  0
  5  6  2  0
  6  7  1  0
  7  8  2  0
  8  9  1  0
  9 10  1  0
 10 11  2  0
 10 12  1  0
 12 13  1  0
 13 14  1  0
 14 15  2  0
 15 16  1  0
 16 17  2  0
 17 18  1  0
 18 19  2  0
 19 20  1  0
 20 21  2  0
  8 22  1  0
 22 23  1  0
 23 24  2  0
 24  3  1  0
 23  6  1  0
 21 13  1  0
 21 16  1  0
  1 25  1  0
  1 26  1  0
  1 27  1  0
  4 28  1  0
  5 29  1  0
  9 30  1  0
 12 31  1  0
 12 32  1  0
 14 33  1  0
 17 34  1  0
 18 35  1  0
 19 36  1  0
 20 37  1  0
 24 38  1  0
M  END
>  <Energy>  (593) 
423.65117555935166

>  <compound_id>  (593) 
32707

>  <target_id>  (593) 
1

>  <reference_id>  (593) 
52

>  <inspiration_ids>  (593) 
[69, 52]

>  <energy_score>  (593) 
339.03416050694864

>  <distance_score>  (593) 
12.847346178031955

>  <path>  (593) 
/opt/xchem-fragalysis-2/maxwin/BulkDock/SCRATCH/511015/C32707-P52/C32707-P52.minimised.mol

>  <scratch_subdir>  (593) 
/opt/xchem-fragalysis-2/maxwin/BulkDock/SCRATCH/511015/C32707-P52

>  <fragmenstein_runtime>  (593) 
22.5450222492218

>  <fragmenstein_outcome>  (593) 
too moved

>  <fragmenstein_mode>  (593) 
expansion

>  <fragmenstein_error>  (593) 


$$$$
C32704-P69
     RDKit          3D

 41 44  0  0  0  0  0  0  0  0999 V2000
   -7.9083    0.0205   10.0048 C   0  0  0  0  0  0  0  0  0  0  0  0
   -7.5126   -0.1510   11.3783 O   0  0  0  0  0  0  0  0  0  0  0  0
   -7.3603   -1.4181   11.8321 C   0  0  0  0  0  0  0  0  0  0  0  0
   -7.0283   -2.8105   10.3270 C   0  0  0  0  0  0  0  0  0  0  0  0
   -7.0968   -4.7417   11.2404 C   0  0  0  0  0  0  0  0  0  0  0  0
   -7.3757   -5.3192   13.2029 C   0  0  0  0  0  0  0  0  0  0  0  0
   -7.1436   -6.5764   14.7687 N   0  0  0  0  0  0  0  0  0  0  0  0
   -7.1762   -7.0546   16.5404 C   0  0  0  0  0  0  0  0  0  0  0  0
   -7.4143   -8.8916   17.4033 N   0  0  0  0  0  0  0  0  0  0  0  0
   -8.5269   -9.6335   19.0504 C   0  0  0  0  0  0  0  0  0  0  0  0
   -9.0957   -8.7714   19.7366 O   0  0  0  0  0  0  0  0  0  0  0  0
   -9.1283  -11.8090   19.6797 C   0  0  0  0  0  0  0  0  0  0  0  0
   -9.8240  -13.0687   21.5918 C   0  0  0  0  0  0  0  0  0  0  0  0
  -10.3984  -14.5908   23.1770 N   0  0  0  0  0  0  0  0  0  0  0  0
   -8.9941  -15.2323   24.7265 C   0  0  0  0  0  0  0  0  0  0  0  0
   -9.1402  -16.3210   25.4539 N   0  0  0  0  0  0  0  0  0  0  0  0
  -10.4147  -16.6967   25.2250 C   0  0  0  0  0  0  0  0  0  0  0  0
  -10.5592  -15.6639   26.7185 C   0  0  0  0  0  0  0  0  0  0  0  0
  -11.6558  -14.7210   26.9875 C   0  0  0  0  0  0  0  0  0  0  0  0
  -12.6956  -14.7352   26.0014 C   0  0  0  0  0  0  0  0  0  0  0  0
  -12.6215  -15.5454   24.5923 C   0  0  0  0  0  0  0  0  0  0  0  0
  -11.4346  -15.9735   23.8579 C   0  0  0  0  0  0  0  0  0  0  0  0
   -7.9419   -4.9818   16.2168 S   0  0  0  0  0  0  0  0  0  0  0  0
   -7.8436   -4.0990   14.1602 C   0  0  0  0  0  0  0  0  0  0  0  0
   -7.9917   -2.3264   13.5352 C   0  0  0  0  0  0  0  0  0  0  0  0
   -7.0943   -0.2552    9.3282 H   0  0  0  0  0  0  0  0  0  0  0  0
   -8.1394    1.0738    9.8354 H   0  0  0  0  0  0  0  0  0  0  0  0
   -8.8313   -0.5226    9.7745 H   0  0  0  0  0  0  0  0  0  0  0  0
   -7.5405   -2.5521    9.3083 H   0  0  0  0  0  0  0  0  0  0  0  0
   -6.2465   -5.4463   11.2089 H   0  0  0  0  0  0  0  0  0  0  0  0
   -6.9091   -9.6729   16.9626 H   0  0  0  0  0  0  0  0  0  0  0  0
   -8.2958  -12.4682   19.2667 H   0  0  0  0  0  0  0  0  0  0  0  0
   -9.8144  -12.0896   18.8178 H   0  0  0  0  0  0  0  0  0  0  0  0
  -10.9161  -12.9277   21.7194 H   0  0  0  0  0  0  0  0  0  0  0  0
   -9.2115  -12.3567   22.1941 H   0  0  0  0  0  0  0  0  0  0  0  0
   -8.1301  -14.5532   25.0447 H   0  0  0  0  0  0  0  0  0  0  0  0
   -9.5964  -15.6309   27.1976 H   0  0  0  0  0  0  0  0  0  0  0  0
  -11.7055  -14.1289   27.8914 H   0  0  0  0  0  0  0  0  0  0  0  0
  -13.6812  -14.3658   26.3045 H   0  0  0  0  0  0  0  0  0  0  0  0
  -13.5432  -16.0639   24.3037 H   0  0  0  0  0  0  0  0  0  0  0  0
   -7.4119   -1.8858   14.4280 H   0  0  0  0  0  0  0  0  0  0  0  0
  1  2  1  0
  2  3  1  0
  3  4  2  0
  4  5  1  0
  5  6  2  0
  6  7  1  0
  7  8  2  0
  8  9  1  0
  9 10  1  0
 10 11  2  0
 10 12  1  0
 12 13  1  0
 13 14  1  0
 14 15  1  0
 15 16  2  0
 16 17  1  0
 17 18  2  0
 18 19  1  0
 19 20  2  0
 20 21  1  0
 21 22  2  0
  8 23  1  0
 23 24  1  0
 24 25  2  0
 25  3  1  0
 24  6  1  0
 22 14  1  0
 22 17  1  0
  1 26  1  0
  1 27  1  0
  1 28  1  0
  4 29  1  0
  5 30  1  0
  9 31  1  0
 12 32  1  0
 12 33  1  0
 13 34  1  0
 13 35  1  0
 15 36  1  0
 18 37  1  0
 19 38  1  0
 20 39  1  0
 21 40  1  0
 25 41  1  0
M  END
>  <Energy>  (594) 
3201.3611602270471

>  <compound_id>  (594) 
32704

>  <target_id>  (594) 
1

>  <reference_id>  (594) 
69

>  <inspiration_ids>  (594) 
[69, 52]

>  <energy_score>  (594) 
3154.013878831979

>  <distance_score>  (594) 
9.056264982632298

>  <path>  (594) 
/opt/xchem-fragalysis-2/maxwin/BulkDock/SCRATCH/511015/C32704-P69/C32704-P69.minimised.mol

>  <scratch_subdir>  (594) 
/opt/xchem-fragalysis-2/maxwin/BulkDock/SCRATCH/511015/C32704-P69

>  <fragmenstein_runtime>  (594) 
24.291518211364746

>  <fragmenstein_outcome>  (594) 
too moved

>  <fragmenstein_mode>  (594) 
expansion

>  <fragmenstein_error>  (594) 


$$$$
C32704-P52
     RDKit          3D

 41 44  0  0  0  0  0  0  0  0999 V2000
   -6.6985   -7.4475   10.7624 C   0  0  0  0  0  0  0  0  0  0  0  0
   -6.6910   -8.4071    9.6807 O   0  0  0  0  0  0  0  0  0  0  0  0
   -6.6602   -9.6699   10.2281 C   0  0  0  0  0  0  0  0  0  0  0  0
   -5.4243  -10.1626   10.5629 C   0  0  0  0  0  0  0  0  0  0  0  0
   -5.2803  -10.7200   11.8149 C   0  0  0  0  0  0  0  0  0  0  0  0
   -6.4164  -10.7243   12.6989 C   0  0  0  0  0  0  0  0  0  0  0  0
   -6.4036  -10.5754   14.4880 N   0  0  0  0  0  0  0  0  0  0  0  0
   -7.5101  -10.5841   15.2318 C   0  0  0  0  0  0  0  0  0  0  0  0
   -7.6362  -11.7546   16.5902 N   0  0  0  0  0  0  0  0  0  0  0  0
   -9.0002  -12.6345   17.2326 C   0  0  0  0  0  0  0  0  0  0  0  0
  -10.2057  -12.5726   16.9565 O   0  0  0  0  0  0  0  0  0  0  0  0
   -8.7540  -13.7668   18.2050 C   0  0  0  0  0  0  0  0  0  0  0  0
   -8.7767  -15.7320   18.0340 C   0  0  0  0  0  0  0  0  0  0  0  0
   -7.6753  -17.0536   17.7199 N   0  0  0  0  0  0  0  0  0  0  0  0
   -7.5801  -17.7348   16.5233 C   0  0  0  0  0  0  0  0  0  0  0  0
   -7.0014  -18.9147   16.6405 N   0  0  0  0  0  0  0  0  0  0  0  0
   -6.5391  -19.0250   17.9280 C   0  0  0  0  0  0  0  0  0  0  0  0
   -6.0046  -20.1460   18.6104 C   0  0  0  0  0  0  0  0  0  0  0  0
   -5.6921  -20.0759   19.9771 C   0  0  0  0  0  0  0  0  0  0  0  0
   -5.8651  -18.8834   20.6584 C   0  0  0  0  0  0  0  0  0  0  0  0
   -6.3566  -17.7526   19.9864 C   0  0  0  0  0  0  0  0  0  0  0  0
   -6.7379  -17.8261   18.6111 C   0  0  0  0  0  0  0  0  0  0  0  0
   -8.8766  -10.6185   13.3595 S   0  0  0  0  0  0  0  0  0  0  0  0
   -7.6648  -10.5330   12.1437 C   0  0  0  0  0  0  0  0  0  0  0  0
   -7.8158  -10.1871   10.8005 C   0  0  0  0  0  0  0  0  0  0  0  0
   -7.5679   -7.5428   11.4095 H   0  0  0  0  0  0  0  0  0  0  0  0
   -5.8310   -7.5842   11.4041 H   0  0  0  0  0  0  0  0  0  0  0  0
   -6.7079   -6.4447   10.3448 H   0  0  0  0  0  0  0  0  0  0  0  0
   -4.5403   -9.9339    9.9938 H   0  0  0  0  0  0  0  0  0  0  0  0
   -4.2706  -10.9000   12.1718 H   0  0  0  0  0  0  0  0  0  0  0  0
   -6.7831  -12.0602   17.0382 H   0  0  0  0  0  0  0  0  0  0  0  0
   -8.3629  -13.9745   17.1808 H   0  0  0  0  0  0  0  0  0  0  0  0
   -8.1161  -13.3518   18.9594 H   0  0  0  0  0  0  0  0  0  0  0  0
   -9.0741  -15.8743   19.0665 H   0  0  0  0  0  0  0  0  0  0  0  0
   -9.4792  -16.1458   17.3416 H   0  0  0  0  0  0  0  0  0  0  0  0
   -7.9695  -17.3352   15.6035 H   0  0  0  0  0  0  0  0  0  0  0  0
   -5.8791  -21.0760   18.0648 H   0  0  0  0  0  0  0  0  0  0  0  0
   -5.3163  -20.9558   20.4910 H   0  0  0  0  0  0  0  0  0  0  0  0
   -5.6576  -18.8247   21.7224 H   0  0  0  0  0  0  0  0  0  0  0  0
   -6.6099  -16.8868   20.5663 H   0  0  0  0  0  0  0  0  0  0  0  0
   -8.7935   -9.9909   10.3962 H   0  0  0  0  0  0  0  0  0  0  0  0
  1  2  1  0
  2  3  1  0
  3  4  2  0
  4  5  1  0
  5  6  2  0
  6  7  1  0
  7  8  2  0
  8  9  1  0
  9 10  1  0
 10 11  2  0
 10 12  1  0
 12 13  1  0
 13 14  1  0
 14 15  1  0
 15 16  2  0
 16 17  1  0
 17 18  2  0
 18 19  1  0
 19 20  2  0
 20 21  1  0
 21 22  2  0
  8 23  1  0
 23 24  1  0
 24 25  2  0
 25  3  1  0
 24  6  1  0
 22 14  1  0
 22 17  1  0
  1 26  1  0
  1 27  1  0
  1 28  1  0
  4 29  1  0
  5 30  1  0
  9 31  1  0
 12 32  1  0
 12 33  1  0
 13 34  1  0
 13 35  1  0
 15 36  1  0
 18 37  1  0
 19 38  1  0
 20 39  1  0
 21 40  1  0
 25 41  1  0
M  END
>  <Energy>  (595) 
435.24610512842116

>  <compound_id>  (595) 
32704

>  <target_id>  (595) 
1

>  <reference_id>  (595) 
52

>  <inspiration_ids>  (595) 
[69, 52]

>  <energy_score>  (595) 
387.89882373340924

>  <distance_score>  (595) 
13.04311922330186

>  <path>  (595) 
/opt/xchem-fragalysis-2/maxwin/BulkDock/SCRATCH/511015/C32704-P52/C32704-P52.minimised.mol

>  <scratch_subdir>  (595) 
/opt/xchem-fragalysis-2/maxwin/BulkDock/SCRATCH/511015/C32704-P52

>  <fragmenstein_runtime>  (595) 
37.17896842956543

>  <fragmenstein_outcome>  (595) 
too moved

>  <fragmenstein_mode>  (595) 
expansion

>  <fragmenstein_error>  (595) 


$$$$
C32705-P69
     RDKit          3D

 41 44  0  0  0  0  0  0  0  0999 V2000
   -9.1367  -10.3698    9.8949 C   0  0  0  0  0  0  0  0  0  0  0  0
   -7.8231  -10.4611   10.4301 O   0  0  0  0  0  0  0  0  0  0  0  0
   -7.4675  -11.7093   10.8894 C   0  0  0  0  0  0  0  0  0  0  0  0
   -6.1162  -12.0059   10.7696 C   0  0  0  0  0  0  0  0  0  0  0  0
   -5.6045  -13.2358   11.2292 C   0  0  0  0  0  0  0  0  0  0  0  0
   -6.4377  -14.1889   11.8764 C   0  0  0  0  0  0  0  0  0  0  0  0
   -6.0334  -15.3862   12.5216 N   0  0  0  0  0  0  0  0  0  0  0  0
   -7.0305  -16.0167   13.1393 C   0  0  0  0  0  0  0  0  0  0  0  0
   -6.8080  -16.8621   14.2752 N   0  0  0  0  0  0  0  0  0  0  0  0
   -7.6725  -17.9111   14.9032 C   0  0  0  0  0  0  0  0  0  0  0  0
   -8.7353  -18.3583   14.5580 O   0  0  0  0  0  0  0  0  0  0  0  0
   -7.0266  -18.3993   16.3640 C   0  0  0  0  0  0  0  0  0  0  0  0
   -5.8562  -19.3394   16.0843 C   0  0  0  0  0  0  0  0  0  0  0  0
   -7.9031  -19.0236   17.4661 N   0  0  0  0  0  0  0  0  0  0  0  0
   -9.0181  -19.8061   17.2569 C   0  0  0  0  0  0  0  0  0  0  0  0
   -9.4624  -20.3941   18.3488 N   0  0  0  0  0  0  0  0  0  0  0  0
   -8.6229  -20.0073   19.3527 C   0  0  0  0  0  0  0  0  0  0  0  0
   -8.6458  -20.3910   20.7157 C   0  0  0  0  0  0  0  0  0  0  0  0
   -7.7041  -19.8604   21.5985 C   0  0  0  0  0  0  0  0  0  0  0  0
   -6.7517  -18.9643   21.1191 C   0  0  0  0  0  0  0  0  0  0  0  0
   -6.6960  -18.5927   19.7527 C   0  0  0  0  0  0  0  0  0  0  0  0
   -7.6490  -19.1237   18.8604 C   0  0  0  0  0  0  0  0  0  0  0  0
   -8.5535  -15.2675   12.7873 S   0  0  0  0  0  0  0  0  0  0  0  0
   -7.7944  -13.8954   11.9767 C   0  0  0  0  0  0  0  0  0  0  0  0
   -8.3294  -12.6587   11.4802 C   0  0  0  0  0  0  0  0  0  0  0  0
   -9.4227  -11.2805    9.3548 H   0  0  0  0  0  0  0  0  0  0  0  0
   -9.1496   -9.5669    9.1614 H   0  0  0  0  0  0  0  0  0  0  0  0
   -9.8560  -10.1727   10.6928 H   0  0  0  0  0  0  0  0  0  0  0  0
   -5.4408  -11.2824   10.3180 H   0  0  0  0  0  0  0  0  0  0  0  0
   -4.5411  -13.4427   11.1456 H   0  0  0  0  0  0  0  0  0  0  0  0
   -5.9420  -16.7941   14.7884 H   0  0  0  0  0  0  0  0  0  0  0  0
   -6.6662  -17.4818   16.8468 H   0  0  0  0  0  0  0  0  0  0  0  0
   -5.1493  -18.8970   15.3754 H   0  0  0  0  0  0  0  0  0  0  0  0
   -5.3059  -19.5797   16.9998 H   0  0  0  0  0  0  0  0  0  0  0  0
   -6.2114  -20.2806   15.6501 H   0  0  0  0  0  0  0  0  0  0  0  0
   -9.4589  -19.9332   16.2761 H   0  0  0  0  0  0  0  0  0  0  0  0
   -9.4062  -21.0865   21.0546 H   0  0  0  0  0  0  0  0  0  0  0  0
   -7.7159  -20.1442   22.6460 H   0  0  0  0  0  0  0  0  0  0  0  0
   -6.0219  -18.5382   21.8070 H   0  0  0  0  0  0  0  0  0  0  0  0
   -5.9251  -17.9111   19.4103 H   0  0  0  0  0  0  0  0  0  0  0  0
   -9.3881  -12.4576   11.5998 H   0  0  0  0  0  0  0  0  0  0  0  0
  1  2  1  0
  2  3  1  0
  3  4  2  0
  4  5  1  0
  5  6  2  0
  6  7  1  0
  7  8  2  0
  8  9  1  0
  9 10  1  0
 10 11  2  0
 10 12  1  0
 12 13  1  0
 12 14  1  0
 14 15  1  0
 15 16  2  0
 16 17  1  0
 17 18  2  0
 18 19  1  0
 19 20  2  0
 20 21  1  0
 21 22  2  0
  8 23  1  0
 23 24  1  0
 24 25  2  0
 25  3  1  0
 24  6  1  0
 22 14  1  0
 22 17  1  0
  1 26  1  0
  1 27  1  0
  1 28  1  0
  4 29  1  0
  5 30  1  0
  9 31  1  0
 12 32  1  0
 13 33  1  0
 13 34  1  0
 13 35  1  0
 15 36  1  0
 18 37  1  0
 19 38  1  0
 20 39  1  0
 21 40  1  0
 25 41  1  0
M  END
>  <Energy>  (596) 
46.358977436249702

>  <compound_id>  (596) 
32705

>  <target_id>  (596) 
1

>  <reference_id>  (596) 
69

>  <inspiration_ids>  (596) 
[69, 52]

>  <energy_score>  (596) 
-64.33916163494547

>  <distance_score>  (596) 
13.600048935655362

>  <path>  (596) 
/opt/xchem-fragalysis-2/maxwin/BulkDock/SCRATCH/511015/C32705-P69/C32705-P69.minimised.mol

>  <scratch_subdir>  (596) 
/opt/xchem-fragalysis-2/maxwin/BulkDock/SCRATCH/511015/C32705-P69

>  <fragmenstein_runtime>  (596) 
30.88695526123047

>  <fragmenstein_outcome>  (596) 
too moved

>  <fragmenstein_mode>  (596) 
expansion

>  <fragmenstein_error>  (596) 


$$$$
C32705-P52
     RDKit          3D

 41 44  0  0  0  0  0  0  0  0999 V2000
   -5.5855   -6.8547   13.2991 C   0  0  0  0  0  0  0  0  0  0  0  0
   -5.3833   -7.7320   12.1939 O   0  0  0  0  0  0  0  0  0  0  0  0
   -5.0260   -9.0381   12.4513 C   0  0  0  0  0  0  0  0  0  0  0  0
   -5.3121   -9.9334   11.4209 C   0  0  0  0  0  0  0  0  0  0  0  0
   -5.0526  -11.3190   11.5528 C   0  0  0  0  0  0  0  0  0  0  0  0
   -4.4881  -11.8542   12.7430 C   0  0  0  0  0  0  0  0  0  0  0  0
   -4.3135  -13.2367   13.0914 N   0  0  0  0  0  0  0  0  0  0  0  0
   -3.8795  -13.3931   14.3327 C   0  0  0  0  0  0  0  0  0  0  0  0
   -3.7351  -14.5461   15.1590 N   0  0  0  0  0  0  0  0  0  0  0  0
   -4.6364  -15.7402   15.3526 C   0  0  0  0  0  0  0  0  0  0  0  0
   -5.6619  -16.0469   14.7935 O   0  0  0  0  0  0  0  0  0  0  0  0
   -4.0776  -16.9409   16.4678 C   0  0  0  0  0  0  0  0  0  0  0  0
   -2.6490  -16.7933   16.9832 C   0  0  0  0  0  0  0  0  0  0  0  0
   -5.0545  -17.5823   17.5044 N   0  0  0  0  0  0  0  0  0  0  0  0
   -6.2950  -18.0866   17.1255 C   0  0  0  0  0  0  0  0  0  0  0  0
   -6.9841  -18.6131   18.1142 N   0  0  0  0  0  0  0  0  0  0  0  0
   -6.1642  -18.5682   19.2029 C   0  0  0  0  0  0  0  0  0  0  0  0
   -6.4348  -19.0384   20.5111 C   0  0  0  0  0  0  0  0  0  0  0  0
   -5.4573  -18.9439   21.4991 C   0  0  0  0  0  0  0  0  0  0  0  0
   -4.2224  -18.3920   21.1760 C   0  0  0  0  0  0  0  0  0  0  0  0
   -3.9338  -17.9107   19.8728 C   0  0  0  0  0  0  0  0  0  0  0  0
   -4.9250  -17.9844   18.8662 C   0  0  0  0  0  0  0  0  0  0  0  0
   -3.3902  -11.8674   15.0326 S   0  0  0  0  0  0  0  0  0  0  0  0
   -4.1346  -10.9405   13.7378 C   0  0  0  0  0  0  0  0  0  0  0  0
   -4.3919   -9.5285   13.6089 C   0  0  0  0  0  0  0  0  0  0  0  0
   -4.6235   -6.5555   13.7255 H   0  0  0  0  0  0  0  0  0  0  0  0
   -6.0995   -5.9626   12.9318 H   0  0  0  0  0  0  0  0  0  0  0  0
   -6.2175   -7.3205   14.0626 H   0  0  0  0  0  0  0  0  0  0  0  0
   -5.7724   -9.5700   10.5022 H   0  0  0  0  0  0  0  0  0  0  0  0
   -5.3358  -11.9986   10.7533 H   0  0  0  0  0  0  0  0  0  0  0  0
   -3.0075  -14.5636   15.8536 H   0  0  0  0  0  0  0  0  0  0  0  0
   -4.0011  -17.7976   15.7732 H   0  0  0  0  0  0  0  0  0  0  0  0
   -1.9790  -16.4463   16.1903 H   0  0  0  0  0  0  0  0  0  0  0  0
   -2.5693  -16.0964   17.8195 H   0  0  0  0  0  0  0  0  0  0  0  0
   -2.2618  -17.7593   17.3268 H   0  0  0  0  0  0  0  0  0  0  0  0
   -6.6486  -18.0042   16.1043 H   0  0  0  0  0  0  0  0  0  0  0  0
   -7.4065  -19.4690   20.7277 H   0  0  0  0  0  0  0  0  0  0  0  0
   -5.6639  -19.2932   22.5060 H   0  0  0  0  0  0  0  0  0  0  0  0
   -3.4574  -18.3193   21.9466 H   0  0  0  0  0  0  0  0  0  0  0  0
   -2.9588  -17.4808   19.6755 H   0  0  0  0  0  0  0  0  0  0  0  0
   -4.1095   -8.8667   14.4206 H   0  0  0  0  0  0  0  0  0  0  0  0
  1  2  1  0
  2  3  1  0
  3  4  2  0
  4  5  1  0
  5  6  2  0
  6  7  1  0
  7  8  2  0
  8  9  1  0
  9 10  1  0
 10 11  2  0
 10 12  1  0
 12 13  1  0
 12 14  1  0
 14 15  1  0
 15 16  2  0
 16 17  1  0
 17 18  2  0
 18 19  1  0
 19 20  2  0
 20 21  1  0
 21 22  2  0
  8 23  1  0
 23 24  1  0
 24 25  2  0
 25  3  1  0
 24  6  1  0
 22 14  1  0
 22 17  1  0
  1 26  1  0
  1 27  1  0
  1 28  1  0
  4 29  1  0
  5 30  1  0
  9 31  1  0
 12 32  1  0
 13 33  1  0
 13 34  1  0
 13 35  1  0
 15 36  1  0
 18 37  1  0
 19 38  1  0
 20 39  1  0
 21 40  1  0
 25 41  1  0
M  END
>  <Energy>  (597) 
65.213312403303476

>  <compound_id>  (597) 
32705

>  <target_id>  (597) 
1

>  <reference_id>  (597) 
52

>  <inspiration_ids>  (597) 
[69, 52]

>  <energy_score>  (597) 
-45.48482666788823

>  <distance_score>  (597) 
13.291994747942448

>  <path>  (597) 
/opt/xchem-fragalysis-2/maxwin/BulkDock/SCRATCH/511015/C32705-P52/C32705-P52.minimised.mol

>  <scratch_subdir>  (597) 
/opt/xchem-fragalysis-2/maxwin/BulkDock/SCRATCH/511015/C32705-P52

>  <fragmenstein_runtime>  (597) 
31.642690896987915

>  <fragmenstein_outcome>  (597) 
too moved

>  <fragmenstein_mode>  (597) 
expansion

>  <fragmenstein_error>  (597) 


$$$$
C32686-P69
     RDKit          3D

 43 46  0  0  0  0  0  0  0  0999 V2000
   -6.5431   -9.9845    9.1801 C   0  0  0  0  0  0  0  0  0  0  0  0
   -7.3743  -11.0532    9.6712 O   0  0  0  0  0  0  0  0  0  0  0  0
   -7.7117  -11.0071   11.0011 C   0  0  0  0  0  0  0  0  0  0  0  0
   -7.5312   -9.8607   11.7303 C   0  0  0  0  0  0  0  0  0  0  0  0
   -7.9764   -9.8013   13.0311 C   0  0  0  0  0  0  0  0  0  0  0  0
   -8.4432  -10.9249   13.6994 C   0  0  0  0  0  0  0  0  0  0  0  0
   -8.5710  -10.9172   15.0665 N   0  0  0  0  0  0  0  0  0  0  0  0
   -8.5676  -12.0090   15.9287 C   0  0  0  0  0  0  0  0  0  0  0  0
   -7.6912  -12.1090   17.5875 N   0  0  0  0  0  0  0  0  0  0  0  0
   -8.1987  -12.4657   18.9749 C   0  0  0  0  0  0  0  0  0  0  0  0
   -9.2773  -12.8521   19.3282 O   0  0  0  0  0  0  0  0  0  0  0  0
   -6.7595  -12.0229   20.0664 N   0  0  0  0  0  0  0  0  0  0  0  0
   -6.6402  -11.9088   22.1065 C   0  0  0  0  0  0  0  0  0  0  0  0
   -5.8768  -12.4208   23.8516 C   0  0  0  0  0  0  0  0  0  0  0  0
   -6.6568  -12.2469   25.5687 N   0  0  0  0  0  0  0  0  0  0  0  0
   -6.5356  -11.1157   26.1417 C   0  0  0  0  0  0  0  0  0  0  0  0
   -5.6829  -11.3616   27.2458 N   0  0  0  0  0  0  0  0  0  0  0  0
   -5.9861  -12.5280   27.8280 C   0  0  0  0  0  0  0  0  0  0  0  0
   -5.4891  -13.1339   29.0183 C   0  0  0  0  0  0  0  0  0  0  0  0
   -6.2629  -14.1240   29.5586 C   0  0  0  0  0  0  0  0  0  0  0  0
   -7.5105  -14.2695   28.9495 C   0  0  0  0  0  0  0  0  0  0  0  0
   -7.9561  -13.7645   27.6514 C   0  0  0  0  0  0  0  0  0  0  0  0
   -6.9737  -13.0224   26.9423 C   0  0  0  0  0  0  0  0  0  0  0  0
   -9.0479  -13.3495   14.2703 S   0  0  0  0  0  0  0  0  0  0  0  0
   -8.5303  -12.1213   13.0462 C   0  0  0  0  0  0  0  0  0  0  0  0
   -8.2426  -12.1632   11.6422 C   0  0  0  0  0  0  0  0  0  0  0  0
   -6.1638  -10.2917    8.2016 H   0  0  0  0  0  0  0  0  0  0  0  0
   -5.6625   -9.8338    9.8146 H   0  0  0  0  0  0  0  0  0  0  0  0
   -7.1199   -9.0655    9.0598 H   0  0  0  0  0  0  0  0  0  0  0  0
   -7.0446   -8.9901   11.3238 H   0  0  0  0  0  0  0  0  0  0  0  0
   -7.8563   -8.9158   13.6261 H   0  0  0  0  0  0  0  0  0  0  0  0
   -6.7751  -11.7406   17.6647 H   0  0  0  0  0  0  0  0  0  0  0  0
   -5.9610  -11.8107   19.5063 H   0  0  0  0  0  0  0  0  0  0  0  0
   -6.6544  -10.9244   22.4561 H   0  0  0  0  0  0  0  0  0  0  0  0
   -7.6653  -11.9220   22.5108 H   0  0  0  0  0  0  0  0  0  0  0  0
   -5.0760  -11.7764   24.1283 H   0  0  0  0  0  0  0  0  0  0  0  0
   -5.6628  -13.4811   23.8885 H   0  0  0  0  0  0  0  0  0  0  0  0
   -7.0221  -10.2347   25.7882 H   0  0  0  0  0  0  0  0  0  0  0  0
   -4.6232  -12.7289   29.5273 H   0  0  0  0  0  0  0  0  0  0  0  0
   -6.0455  -14.5497   30.5316 H   0  0  0  0  0  0  0  0  0  0  0  0
   -8.2575  -14.5667   29.6400 H   0  0  0  0  0  0  0  0  0  0  0  0
   -8.9616  -13.9223   27.3356 H   0  0  0  0  0  0  0  0  0  0  0  0
   -8.3588  -13.0902   11.0898 H   0  0  0  0  0  0  0  0  0  0  0  0
  1  2  1  0
  2  3  1  0
  3  4  2  0
  4  5  1  0
  5  6  2  0
  6  7  1  0
  7  8  2  0
  8  9  1  0
  9 10  1  0
 10 11  2  0
 10 12  1  0
 12 13  1  0
 13 14  1  0
 14 15  1  0
 15 16  1  0
 16 17  2  0
 17 18  1  0
 18 19  2  0
 19 20  1  0
 20 21  2  0
 21 22  1  0
 22 23  2  0
  8 24  1  0
 24 25  1  0
 25 26  2  0
 26  3  1  0
 25  6  1  0
 23 15  1  0
 23 18  1  0
  1 27  1  0
  1 28  1  0
  1 29  1  0
  4 30  1  0
  5 31  1  0
  9 32  1  0
 12 33  1  0
 13 34  1  0
 13 35  1  0
 14 36  1  0
 14 37  1  0
 16 38  1  0
 19 39  1  0
 20 40  1  0
 21 41  1  0
 22 42  1  0
 26 43  1  0
M  END
>  <Energy>  (598) 
582.12339828975325

>  <compound_id>  (598) 
32686

>  <target_id>  (598) 
1

>  <reference_id>  (598) 
69

>  <inspiration_ids>  (598) 
[69, 52]

>  <energy_score>  (598) 
588.4705148646798

>  <distance_score>  (598) 
12.19799269488549

>  <path>  (598) 
/opt/xchem-fragalysis-2/maxwin/BulkDock/SCRATCH/511015/C32686-P69/C32686-P69.minimised.mol

>  <scratch_subdir>  (598) 
/opt/xchem-fragalysis-2/maxwin/BulkDock/SCRATCH/511015/C32686-P69

>  <fragmenstein_runtime>  (598) 
32.45415234565735

>  <fragmenstein_outcome>  (598) 
too moved

>  <fragmenstein_mode>  (598) 
expansion

>  <fragmenstein_error>  (598) 


$$$$
C32686-P52
     RDKit          3D

 43 46  0  0  0  0  0  0  0  0999 V2000
   -4.7009   -6.4038    8.1456 C   0  0  0  0  0  0  0  0  0  0  0  0
   -2.9959   -7.0330    9.0212 O   0  0  0  0  0  0  0  0  0  0  0  0
   -2.6370   -7.6487   10.7284 C   0  0  0  0  0  0  0  0  0  0  0  0
   -2.6916   -9.0311   11.0115 C   0  0  0  0  0  0  0  0  0  0  0  0
   -2.7706   -9.6425   12.4787 C   0  0  0  0  0  0  0  0  0  0  0  0
   -2.8269   -9.0170   13.8580 C   0  0  0  0  0  0  0  0  0  0  0  0
   -3.0516   -9.6553   15.3843 N   0  0  0  0  0  0  0  0  0  0  0  0
   -3.0931   -8.8854   16.5348 C   0  0  0  0  0  0  0  0  0  0  0  0
   -3.7132   -9.0089   18.1785 N   0  0  0  0  0  0  0  0  0  0  0  0
   -4.5138  -10.3652   19.0328 C   0  0  0  0  0  0  0  0  0  0  0  0
   -4.6277  -11.4194   18.5561 O   0  0  0  0  0  0  0  0  0  0  0  0
   -5.3007   -9.9371   20.6495 N   0  0  0  0  0  0  0  0  0  0  0  0
   -6.6038  -11.0252   21.8595 C   0  0  0  0  0  0  0  0  0  0  0  0
   -6.5242  -11.4011   23.7084 C   0  0  0  0  0  0  0  0  0  0  0  0
   -7.2638  -12.4938   25.1235 N   0  0  0  0  0  0  0  0  0  0  0  0
   -7.7566  -13.9105   24.7209 C   0  0  0  0  0  0  0  0  0  0  0  0
   -8.6852  -14.5381   25.3664 N   0  0  0  0  0  0  0  0  0  0  0  0
   -8.7935  -13.8992   26.5376 C   0  0  0  0  0  0  0  0  0  0  0  0
   -9.1567  -14.7359   27.6235 C   0  0  0  0  0  0  0  0  0  0  0  0
   -8.1961  -14.7916   28.6131 C   0  0  0  0  0  0  0  0  0  0  0  0
   -7.4495  -13.7155   28.9011 C   0  0  0  0  0  0  0  0  0  0  0  0
   -7.3662  -12.7416   27.9118 C   0  0  0  0  0  0  0  0  0  0  0  0
   -7.9066  -12.7221   26.5743 C   0  0  0  0  0  0  0  0  0  0  0  0
   -2.9099   -7.0490   15.6364 S   0  0  0  0  0  0  0  0  0  0  0  0
   -2.7777   -7.6296   13.7069 C   0  0  0  0  0  0  0  0  0  0  0  0
   -2.6817   -6.9132   12.1650 C   0  0  0  0  0  0  0  0  0  0  0  0
   -5.5482   -6.9508    8.6144 H   0  0  0  0  0  0  0  0  0  0  0  0
   -4.7604   -5.3580    8.0194 H   0  0  0  0  0  0  0  0  0  0  0  0
   -4.7416   -6.6257    7.0623 H   0  0  0  0  0  0  0  0  0  0  0  0
   -2.7061   -9.7703   10.2112 H   0  0  0  0  0  0  0  0  0  0  0  0
   -2.8305  -10.7360   12.4954 H   0  0  0  0  0  0  0  0  0  0  0  0
   -3.6504   -8.2174   18.8010 H   0  0  0  0  0  0  0  0  0  0  0  0
   -5.0029   -8.9940   20.9321 H   0  0  0  0  0  0  0  0  0  0  0  0
   -6.8021  -11.9141   21.3174 H   0  0  0  0  0  0  0  0  0  0  0  0
   -7.6167  -10.5879   21.9356 H   0  0  0  0  0  0  0  0  0  0  0  0
   -5.4351  -11.2577   23.7593 H   0  0  0  0  0  0  0  0  0  0  0  0
   -6.2367  -12.3429   23.2061 H   0  0  0  0  0  0  0  0  0  0  0  0
   -7.3687  -14.1733   23.7681 H   0  0  0  0  0  0  0  0  0  0  0  0
   -9.7432  -15.6247   27.4077 H   0  0  0  0  0  0  0  0  0  0  0  0
   -7.9368  -15.6785   29.1503 H   0  0  0  0  0  0  0  0  0  0  0  0
   -6.8180  -13.6675   29.7814 H   0  0  0  0  0  0  0  0  0  0  0  0
   -6.7185  -11.9652   28.2563 H   0  0  0  0  0  0  0  0  0  0  0  0
   -2.7076   -5.8211   12.2045 H   0  0  0  0  0  0  0  0  0  0  0  0
  1  2  1  0
  2  3  1  0
  3  4  2  0
  4  5  1  0
  5  6  2  0
  6  7  1  0
  7  8  2  0
  8  9  1  0
  9 10  1  0
 10 11  2  0
 10 12  1  0
 12 13  1  0
 13 14  1  0
 14 15  1  0
 15 16  1  0
 16 17  2  0
 17 18  1  0
 18 19  2  0
 19 20  1  0
 20 21  2  0
 21 22  1  0
 22 23  2  0
  8 24  1  0
 24 25  1  0
 25 26  2  0
 26  3  1  0
 25  6  1  0
 23 15  1  0
 23 18  1  0
  1 27  1  0
  1 28  1  0
  1 29  1  0
  4 30  1  0
  5 31  1  0
  9 32  1  0
 12 33  1  0
 13 34  1  0
 13 35  1  0
 14 36  1  0
 14 37  1  0
 16 38  1  0
 19 39  1  0
 20 40  1  0
 21 41  1  0
 22 42  1  0
 26 43  1  0
M  END
>  <Energy>  (599) 
889.8387271482851

>  <compound_id>  (599) 
32686

>  <target_id>  (599) 
1

>  <reference_id>  (599) 
52

>  <inspiration_ids>  (599) 
[69, 52]

>  <energy_score>  (599) 
896.1858437232179

>  <distance_score>  (599) 
10.822853332743753

>  <path>  (599) 
/opt/xchem-fragalysis-2/maxwin/BulkDock/SCRATCH/511015/C32686-P52/C32686-P52.minimised.mol

>  <scratch_subdir>  (599) 
/opt/xchem-fragalysis-2/maxwin/BulkDock/SCRATCH/511015/C32686-P52

>  <fragmenstein_runtime>  (599) 
25.27265977859497

>  <fragmenstein_outcome>  (599) 
too moved

>  <fragmenstein_mode>  (599) 
expansion

>  <fragmenstein_error>  (599) 


$$$$
C32700-P69
     RDKit          3D

 45 48  0  0  0  0  0  0  0  0999 V2000
   -9.3452   -0.2377   19.5084 C   0  0  0  0  0  0  0  0  0  0  0  0
   -9.7991   -1.1052   18.3684 C   0  0  0  0  0  0  0  0  0  0  0  0
  -10.5081   -0.5125   17.2979 C   0  0  0  0  0  0  0  0  0  0  0  0
  -10.9732   -1.2628   16.2228 C   0  0  0  0  0  0  0  0  0  0  0  0
  -10.6997   -2.6220   16.1559 C   0  0  0  0  0  0  0  0  0  0  0  0
  -10.0631   -3.2145   17.2600 C   0  0  0  0  0  0  0  0  0  0  0  0
   -9.7286   -4.8488   17.5089 S   0  0  0  0  0  0  0  0  0  0  0  0
   -9.2276   -4.6043   19.2163 C   0  0  0  0  0  0  0  0  0  0  0  0
   -9.0647   -5.9229   20.0238 N   0  0  0  0  0  0  0  0  0  0  0  0
   -7.8749   -6.4056   21.4196 C   0  0  0  0  0  0  0  0  0  0  0  0
   -6.9237   -5.8276   21.9182 O   0  0  0  0  0  0  0  0  0  0  0  0
   -8.4741   -7.4729   21.7125 N   0  0  0  0  0  0  0  0  0  0  0  0
   -8.3064   -8.7430   23.2236 C   0  0  0  0  0  0  0  0  0  0  0  0
   -7.3988  -10.6282   23.3374 C   0  0  0  0  0  0  0  0  0  0  0  0
   -6.1221  -11.9298   24.1721 C   0  0  0  0  0  0  0  0  0  0  0  0
   -5.9542  -13.8484   24.0278 N   0  0  0  0  0  0  0  0  0  0  0  0
   -4.5511  -14.6948   23.9440 C   0  0  0  0  0  0  0  0  0  0  0  0
   -4.5034  -15.9737   24.2803 N   0  0  0  0  0  0  0  0  0  0  0  0
   -5.6757  -16.3201   24.9044 C   0  0  0  0  0  0  0  0  0  0  0  0
   -5.7198  -17.4141   25.8197 C   0  0  0  0  0  0  0  0  0  0  0  0
   -6.5544  -17.3768   26.9282 C   0  0  0  0  0  0  0  0  0  0  0  0
   -7.3942  -16.2883   27.0741 C   0  0  0  0  0  0  0  0  0  0  0  0
   -7.5463  -15.2927   26.0691 C   0  0  0  0  0  0  0  0  0  0  0  0
   -6.7213  -15.2876   24.8331 C   0  0  0  0  0  0  0  0  0  0  0  0
   -9.1094   -3.2998   19.4343 N   0  0  0  0  0  0  0  0  0  0  0  0
   -9.6309   -2.5122   18.3739 C   0  0  0  0  0  0  0  0  0  0  0  0
  -10.2079    0.0839   20.1000 H   0  0  0  0  0  0  0  0  0  0  0  0
   -8.8221    0.6460   19.1286 H   0  0  0  0  0  0  0  0  0  0  0  0
   -8.6548   -0.7736   20.1673 H   0  0  0  0  0  0  0  0  0  0  0  0
  -10.6956    0.5604   17.3123 H   0  0  0  0  0  0  0  0  0  0  0  0
  -11.5131   -0.7761   15.4143 H   0  0  0  0  0  0  0  0  0  0  0  0
  -11.0243   -3.2176   15.3096 H   0  0  0  0  0  0  0  0  0  0  0  0
   -9.7007   -6.6704   19.7974 H   0  0  0  0  0  0  0  0  0  0  0  0
   -9.2104   -7.6647   20.9522 H   0  0  0  0  0  0  0  0  0  0  0  0
   -9.3599   -9.1014   23.1293 H   0  0  0  0  0  0  0  0  0  0  0  0
   -8.4560   -7.9760   23.9065 H   0  0  0  0  0  0  0  0  0  0  0  0
   -8.1848  -11.2208   22.8866 H   0  0  0  0  0  0  0  0  0  0  0  0
   -6.8242  -10.9034   22.4777 H   0  0  0  0  0  0  0  0  0  0  0  0
   -5.0777  -11.7672   24.0934 H   0  0  0  0  0  0  0  0  0  0  0  0
   -6.4392  -11.8799   25.2380 H   0  0  0  0  0  0  0  0  0  0  0  0
   -3.6444  -14.1135   23.9122 H   0  0  0  0  0  0  0  0  0  0  0  0
   -4.9256  -18.1540   25.7653 H   0  0  0  0  0  0  0  0  0  0  0  0
   -6.4556  -18.1198   27.7145 H   0  0  0  0  0  0  0  0  0  0  0  0
   -7.8696  -16.1492   28.0325 H   0  0  0  0  0  0  0  0  0  0  0  0
   -8.0339  -14.3871   26.3988 H   0  0  0  0  0  0  0  0  0  0  0  0
  1  2  1  0
  2  3  2  0
  3  4  1  0
  4  5  2  0
  5  6  1  0
  6  7  1  0
  7  8  1  0
  8  9  1  0
  9 10  1  0
 10 11  2  0
 10 12  1  0
 12 13  1  0
 13 14  1  0
 14 15  1  0
 15 16  1  0
 16 17  1  0
 17 18  2  0
 18 19  1  0
 19 20  2  0
 20 21  1  0
 21 22  2  0
 22 23  1  0
 23 24  2  0
  8 25  2  0
 25 26  1  0
 26  2  1  0
 26  6  2  0
 24 16  1  0
 24 19  1  0
  1 27  1  0
  1 28  1  0
  1 29  1  0
  3 30  1  0
  4 31  1  0
  5 32  1  0
  9 33  1  0
 12 34  1  0
 13 35  1  0
 13 36  1  0
 14 37  1  0
 14 38  1  0
 15 39  1  0
 15 40  1  0
 17 41  1  0
 20 42  1  0
 21 43  1  0
 22 44  1  0
 23 45  1  0
M  END
>  <Energy>  (600) 
536.32217021915619

>  <compound_id>  (600) 
32700

>  <target_id>  (600) 
1

>  <reference_id>  (600) 
69

>  <inspiration_ids>  (600) 
[69, 52]

>  <energy_score>  (600) 
524.6146695996981

>  <distance_score>  (600) 
11.43536529726472

>  <path>  (600) 
/opt/xchem-fragalysis-2/maxwin/BulkDock/SCRATCH/511015/C32700-P69/C32700-P69.minimised.mol

>  <scratch_subdir>  (600) 
/opt/xchem-fragalysis-2/maxwin/BulkDock/SCRATCH/511015/C32700-P69

>  <fragmenstein_runtime>  (600) 
35.44253754615784

>  <fragmenstein_outcome>  (600) 
too moved

>  <fragmenstein_mode>  (600) 
expansion

>  <fragmenstein_error>  (600) 


$$$$
C32700-P52
     RDKit          3D

 45 48  0  0  0  0  0  0  0  0999 V2000
   -6.6643   -6.4311   10.6024 C   0  0  0  0  0  0  0  0  0  0  0  0
   -6.9869   -7.3080   11.6900 C   0  0  0  0  0  0  0  0  0  0  0  0
   -7.0311   -8.6746   11.1748 C   0  0  0  0  0  0  0  0  0  0  0  0
   -7.9479   -9.5625   11.6555 C   0  0  0  0  0  0  0  0  0  0  0  0
   -8.8209   -9.0259   12.6001 C   0  0  0  0  0  0  0  0  0  0  0  0
   -8.6833   -7.5338   13.1214 C   0  0  0  0  0  0  0  0  0  0  0  0
   -9.6114   -6.0957   13.7844 S   0  0  0  0  0  0  0  0  0  0  0  0
   -8.2694   -6.3422   15.2581 C   0  0  0  0  0  0  0  0  0  0  0  0
   -8.5925   -7.2075   16.7032 N   0  0  0  0  0  0  0  0  0  0  0  0
   -9.9331   -7.0265   17.9272 C   0  0  0  0  0  0  0  0  0  0  0  0
  -10.7595   -6.2114   17.9515 O   0  0  0  0  0  0  0  0  0  0  0  0
   -9.6672   -8.1437   19.0270 N   0  0  0  0  0  0  0  0  0  0  0  0
  -10.5332   -8.4877   20.9366 C   0  0  0  0  0  0  0  0  0  0  0  0
  -10.3625  -10.0702   22.1937 C   0  0  0  0  0  0  0  0  0  0  0  0
  -11.2060  -10.5949   23.8933 C   0  0  0  0  0  0  0  0  0  0  0  0
  -11.5709  -11.8244   25.1164 N   0  0  0  0  0  0  0  0  0  0  0  0
  -12.8190  -12.3228   24.9961 C   0  0  0  0  0  0  0  0  0  0  0  0
  -13.1083  -13.4519   25.6304 N   0  0  0  0  0  0  0  0  0  0  0  0
  -12.1593  -13.6319   26.5402 C   0  0  0  0  0  0  0  0  0  0  0  0
  -12.1203  -14.6686   27.4853 C   0  0  0  0  0  0  0  0  0  0  0  0
  -10.9106  -15.0487   28.0346 C   0  0  0  0  0  0  0  0  0  0  0  0
   -9.7658  -14.3485   27.7115 C   0  0  0  0  0  0  0  0  0  0  0  0
   -9.8280  -13.2313   26.8527 C   0  0  0  0  0  0  0  0  0  0  0  0
  -11.0923  -12.7545   26.2661 C   0  0  0  0  0  0  0  0  0  0  0  0
   -7.2327   -6.2758   14.3595 N   0  0  0  0  0  0  0  0  0  0  0  0
   -7.6562   -6.7069   12.8648 C   0  0  0  0  0  0  0  0  0  0  0  0
   -6.0991   -5.7157   11.1612 H   0  0  0  0  0  0  0  0  0  0  0  0
   -6.2329   -6.9382    9.7478 H   0  0  0  0  0  0  0  0  0  0  0  0
   -7.5921   -6.1162   10.1886 H   0  0  0  0  0  0  0  0  0  0  0  0
   -6.4336   -8.9616   10.3079 H   0  0  0  0  0  0  0  0  0  0  0  0
   -8.0804  -10.5533   11.2398 H   0  0  0  0  0  0  0  0  0  0  0  0
   -9.7396   -9.5910   12.7942 H   0  0  0  0  0  0  0  0  0  0  0  0
   -8.0801   -8.0340   16.8736 H   0  0  0  0  0  0  0  0  0  0  0  0
   -8.9287   -8.7707   18.6918 H   0  0  0  0  0  0  0  0  0  0  0  0
   -9.9515   -7.8111   21.5505 H   0  0  0  0  0  0  0  0  0  0  0  0
  -11.6454   -8.3392   21.0782 H   0  0  0  0  0  0  0  0  0  0  0  0
   -9.2761  -10.0926   22.2212 H   0  0  0  0  0  0  0  0  0  0  0  0
  -10.5678  -11.0135   21.7046 H   0  0  0  0  0  0  0  0  0  0  0  0
  -10.2402  -10.7363   24.3427 H   0  0  0  0  0  0  0  0  0  0  0  0
  -11.7565  -11.2847   23.2504 H   0  0  0  0  0  0  0  0  0  0  0  0
  -13.5323  -11.8346   24.3630 H   0  0  0  0  0  0  0  0  0  0  0  0
  -13.0238  -15.2380   27.6787 H   0  0  0  0  0  0  0  0  0  0  0  0
  -10.8892  -15.9286   28.6593 H   0  0  0  0  0  0  0  0  0  0  0  0
   -8.8023  -14.6533   28.1095 H   0  0  0  0  0  0  0  0  0  0  0  0
   -8.8847  -12.7659   26.5873 H   0  0  0  0  0  0  0  0  0  0  0  0
  1  2  1  0
  2  3  2  0
  3  4  1  0
  4  5  2  0
  5  6  1  0
  6  7  1  0
  7  8  1  0
  8  9  1  0
  9 10  1  0
 10 11  2  0
 10 12  1  0
 12 13  1  0
 13 14  1  0
 14 15  1  0
 15 16  1  0
 16 17  1  0
 17 18  2  0
 18 19  1  0
 19 20  2  0
 20 21  1  0
 21 22  2  0
 22 23  1  0
 23 24  2  0
  8 25  2  0
 25 26  1  0
 26  2  1  0
 26  6  2  0
 24 16  1  0
 24 19  1  0
  1 27  1  0
  1 28  1  0
  1 29  1  0
  3 30  1  0
  4 31  1  0
  5 32  1  0
  9 33  1  0
 12 34  1  0
 13 35  1  0
 13 36  1  0
 14 37  1  0
 14 38  1  0
 15 39  1  0
 15 40  1  0
 17 41  1  0
 20 42  1  0
 21 43  1  0
 22 44  1  0
 23 45  1  0
M  END
>  <Energy>  (601) 
633.51196782513773

>  <compound_id>  (601) 
32700

>  <target_id>  (601) 
1

>  <reference_id>  (601) 
52

>  <inspiration_ids>  (601) 
[69, 52]

>  <energy_score>  (601) 
621.8044672056697

>  <distance_score>  (601) 
10.387120284138543

>  <path>  (601) 
/opt/xchem-fragalysis-2/maxwin/BulkDock/SCRATCH/511015/C32700-P52/C32700-P52.minimised.mol

>  <scratch_subdir>  (601) 
/opt/xchem-fragalysis-2/maxwin/BulkDock/SCRATCH/511015/C32700-P52

>  <fragmenstein_runtime>  (601) 
29.960270404815674

>  <fragmenstein_outcome>  (601) 
too moved

>  <fragmenstein_mode>  (601) 
expansion

>  <fragmenstein_error>  (601) 


$$$$
C32701-P69
     RDKit          3D

 40 43  0  0  0  0  0  0  0  0999 V2000
   -6.9423   -9.1376   12.7169 C   0  0  0  0  0  0  0  0  0  0  0  0
   -6.6843   -7.6364   13.1409 C   0  0  0  0  0  0  0  0  0  0  0  0
   -5.8295   -6.9432   12.3169 C   0  0  0  0  0  0  0  0  0  0  0  0
   -5.7504   -5.6361   12.7630 C   0  0  0  0  0  0  0  0  0  0  0  0
   -6.4218   -4.8119   14.1568 C   0  0  0  0  0  0  0  0  0  0  0  0
   -7.2120   -5.5640   15.0915 C   0  0  0  0  0  0  0  0  0  0  0  0
   -7.1069   -5.6630   17.1527 S   0  0  0  0  0  0  0  0  0  0  0  0
   -7.0545   -7.4935   17.0590 C   0  0  0  0  0  0  0  0  0  0  0  0
   -7.4264   -9.0488   17.6507 N   0  0  0  0  0  0  0  0  0  0  0  0
   -8.5755   -9.6407   19.1380 C   0  0  0  0  0  0  0  0  0  0  0  0
   -9.0652   -8.7891   19.8331 O   0  0  0  0  0  0  0  0  0  0  0  0
   -9.1519  -11.7139   19.4666 C   0  0  0  0  0  0  0  0  0  0  0  0
   -9.6877  -12.8546   21.3139 C   0  0  0  0  0  0  0  0  0  0  0  0
  -11.0696  -13.9989   22.3324 N   0  0  0  0  0  0  0  0  0  0  0  0
  -11.8855  -15.5159   21.7692 C   0  0  0  0  0  0  0  0  0  0  0  0
  -12.4646  -16.2369   22.7326 N   0  0  0  0  0  0  0  0  0  0  0  0
  -11.6569  -16.1526   23.7919 C   0  0  0  0  0  0  0  0  0  0  0  0
  -10.5722  -16.9157   24.8790 C   0  0  0  0  0  0  0  0  0  0  0  0
  -10.0918  -16.1749   26.3190 C   0  0  0  0  0  0  0  0  0  0  0  0
  -11.1684  -15.1012   26.7417 C   0  0  0  0  0  0  0  0  0  0  0  0
  -12.3457  -14.7456   25.5807 C   0  0  0  0  0  0  0  0  0  0  0  0
  -11.9801  -14.8464   23.7833 C   0  0  0  0  0  0  0  0  0  0  0  0
   -7.0043   -7.5865   15.7946 N   0  0  0  0  0  0  0  0  0  0  0  0
   -7.3723   -6.9006   14.6501 C   0  0  0  0  0  0  0  0  0  0  0  0
   -7.2193   -9.2105   11.6612 H   0  0  0  0  0  0  0  0  0  0  0  0
   -6.0336   -9.7369   12.8396 H   0  0  0  0  0  0  0  0  0  0  0  0
   -7.7517   -9.5650   13.3188 H   0  0  0  0  0  0  0  0  0  0  0  0
   -5.2852   -7.3570   11.4803 H   0  0  0  0  0  0  0  0  0  0  0  0
   -4.9912   -5.2238   12.1627 H   0  0  0  0  0  0  0  0  0  0  0  0
   -5.9474   -3.8813   14.4625 H   0  0  0  0  0  0  0  0  0  0  0  0
   -7.0102   -9.8658   17.2113 H   0  0  0  0  0  0  0  0  0  0  0  0
   -8.2915  -12.3106   19.0558 H   0  0  0  0  0  0  0  0  0  0  0  0
   -9.9228  -11.9557   18.6887 H   0  0  0  0  0  0  0  0  0  0  0  0
   -8.9576  -13.5041   20.8347 H   0  0  0  0  0  0  0  0  0  0  0  0
   -9.3658  -12.1879   22.1069 H   0  0  0  0  0  0  0  0  0  0  0  0
  -12.3002  -15.4313   20.7697 H   0  0  0  0  0  0  0  0  0  0  0  0
  -10.2425  -17.9172   24.6707 H   0  0  0  0  0  0  0  0  0  0  0  0
   -9.3039  -16.5729   26.9290 H   0  0  0  0  0  0  0  0  0  0  0  0
  -11.2282  -14.5807   27.6892 H   0  0  0  0  0  0  0  0  0  0  0  0
  -12.8731  -13.8386   25.9352 H   0  0  0  0  0  0  0  0  0  0  0  0
  1  2  1  0
  2  3  2  0
  3  4  1  0
  4  5  2  0
  5  6  1  0
  6  7  1  0
  7  8  1  0
  8  9  1  0
  9 10  1  0
 10 11  2  0
 10 12  1  0
 12 13  1  0
 13 14  1  0
 14 15  1  0
 15 16  2  0
 16 17  1  0
 17 18  2  0
 18 19  1  0
 19 20  2  0
 20 21  1  0
 21 22  2  0
  8 23  2  0
 23 24  1  0
 24  2  1  0
 24  6  2  0
 22 14  1  0
 22 17  1  0
  1 25  1  0
  1 26  1  0
  1 27  1  0
  3 28  1  0
  4 29  1  0
  5 30  1  0
  9 31  1  0
 12 32  1  0
 12 33  1  0
 13 34  1  0
 13 35  1  0
 15 36  1  0
 18 37  1  0
 19 38  1  0
 20 39  1  0
 21 40  1  0
M  END
>  <Energy>  (602) 
1285.5864194191251

>  <compound_id>  (602) 
32701

>  <target_id>  (602) 
1

>  <reference_id>  (602) 
69

>  <inspiration_ids>  (602) 
[69, 52]

>  <energy_score>  (602) 
1230.2347600728056

>  <distance_score>  (602) 
10.354423204778112

>  <path>  (602) 
/opt/xchem-fragalysis-2/maxwin/BulkDock/SCRATCH/511015/C32701-P69/C32701-P69.minimised.mol

>  <scratch_subdir>  (602) 
/opt/xchem-fragalysis-2/maxwin/BulkDock/SCRATCH/511015/C32701-P69

>  <fragmenstein_runtime>  (602) 
28.69683003425598

>  <fragmenstein_outcome>  (602) 
too moved

>  <fragmenstein_mode>  (602) 
expansion

>  <fragmenstein_error>  (602) 


$$$$
C32701-P52
     RDKit          3D

 40 43  0  0  0  0  0  0  0  0999 V2000
   -6.8592   -7.1741   10.3521 C   0  0  0  0  0  0  0  0  0  0  0  0
   -8.0807   -6.1324   10.3727 C   0  0  0  0  0  0  0  0  0  0  0  0
   -8.2051   -4.7256    9.0094 C   0  0  0  0  0  0  0  0  0  0  0  0
   -8.6996   -2.5025    9.4578 C   0  0  0  0  0  0  0  0  0  0  0  0
   -9.3182   -3.2979   11.3872 C   0  0  0  0  0  0  0  0  0  0  0  0
   -8.9676   -4.8373   12.4866 C   0  0  0  0  0  0  0  0  0  0  0  0
   -8.7688   -5.4580   14.6329 S   0  0  0  0  0  0  0  0  0  0  0  0
   -7.9631   -7.5476   15.0271 C   0  0  0  0  0  0  0  0  0  0  0  0
   -8.6046   -8.7601   16.4214 N   0  0  0  0  0  0  0  0  0  0  0  0
   -8.1998  -10.6443   16.8347 C   0  0  0  0  0  0  0  0  0  0  0  0
   -7.3275  -11.1807   16.1951 O   0  0  0  0  0  0  0  0  0  0  0  0
   -9.1752  -12.1035   18.1121 C   0  0  0  0  0  0  0  0  0  0  0  0
   -9.9610  -13.1533   19.8647 C   0  0  0  0  0  0  0  0  0  0  0  0
  -11.6004  -13.8284   21.0291 N   0  0  0  0  0  0  0  0  0  0  0  0
  -12.3231  -15.4151   20.3524 C   0  0  0  0  0  0  0  0  0  0  0  0
  -13.3565  -16.1019   20.7252 N   0  0  0  0  0  0  0  0  0  0  0  0
  -13.2713  -16.0821   22.0293 C   0  0  0  0  0  0  0  0  0  0  0  0
  -14.3154  -16.7866   22.8070 C   0  0  0  0  0  0  0  0  0  0  0  0
  -14.5038  -16.7792   24.1512 C   0  0  0  0  0  0  0  0  0  0  0  0
  -13.6747  -15.9182   24.7534 C   0  0  0  0  0  0  0  0  0  0  0  0
  -12.6242  -15.2576   24.0186 C   0  0  0  0  0  0  0  0  0  0  0  0
  -12.0233  -15.1280   22.4290 C   0  0  0  0  0  0  0  0  0  0  0  0
   -8.1627   -7.3895   13.4162 N   0  0  0  0  0  0  0  0  0  0  0  0
   -8.3959   -6.1118   12.1127 C   0  0  0  0  0  0  0  0  0  0  0  0
   -6.1678   -6.8079   11.1063 H   0  0  0  0  0  0  0  0  0  0  0  0
   -7.1787   -8.1624   10.7060 H   0  0  0  0  0  0  0  0  0  0  0  0
   -6.4372   -7.2789    9.3573 H   0  0  0  0  0  0  0  0  0  0  0  0
   -7.0332   -5.1677    9.7107 H   0  0  0  0  0  0  0  0  0  0  0  0
   -8.1157   -1.5458    9.6954 H   0  0  0  0  0  0  0  0  0  0  0  0
   -8.8822   -2.6902   12.2461 H   0  0  0  0  0  0  0  0  0  0  0  0
   -9.2819   -8.4216   17.0856 H   0  0  0  0  0  0  0  0  0  0  0  0
   -9.8456  -12.6276   17.4196 H   0  0  0  0  0  0  0  0  0  0  0  0
   -8.2749  -12.7286   18.1082 H   0  0  0  0  0  0  0  0  0  0  0  0
  -10.4612  -13.6907   18.9733 H   0  0  0  0  0  0  0  0  0  0  0  0
  -10.1910  -12.3844   20.5991 H   0  0  0  0  0  0  0  0  0  0  0  0
  -11.7876  -15.7554   19.4120 H   0  0  0  0  0  0  0  0  0  0  0  0
  -15.0653  -17.2986   22.2007 H   0  0  0  0  0  0  0  0  0  0  0  0
  -15.3194  -17.2875   24.6426 H   0  0  0  0  0  0  0  0  0  0  0  0
  -13.8689  -15.6308   25.7880 H   0  0  0  0  0  0  0  0  0  0  0  0
  -12.2988  -14.5735   24.8204 H   0  0  0  0  0  0  0  0  0  0  0  0
  1  2  1  0
  2  3  2  0
  3  4  1  0
  4  5  2  0
  5  6  1  0
  6  7  1  0
  7  8  1  0
  8  9  1  0
  9 10  1  0
 10 11  2  0
 10 12  1  0
 12 13  1  0
 13 14  1  0
 14 15  1  0
 15 16  2  0
 16 17  1  0
 17 18  2  0
 18 19  1  0
 19 20  2  0
 20 21  1  0
 21 22  2  0
  8 23  2  0
 23 24  1  0
 24  2  1  0
 24  6  2  0
 22 14  1  0
 22 17  1  0
  1 25  1  0
  1 26  1  0
  1 27  1  0
  3 28  1  0
  4 29  1  0
  5 30  1  0
  9 31  1  0
 12 32  1  0
 12 33  1  0
 13 34  1  0
 13 35  1  0
 15 36  1  0
 18 37  1  0
 19 38  1  0
 20 39  1  0
 21 40  1  0
M  END
>  <Energy>  (603) 
2444.5024043490994

>  <compound_id>  (603) 
32701

>  <target_id>  (603) 
1

>  <reference_id>  (603) 
52

>  <inspiration_ids>  (603) 
[69, 52]

>  <energy_score>  (603) 
2389.150745002828

>  <distance_score>  (603) 
10.139524995301416

>  <path>  (603) 
/opt/xchem-fragalysis-2/maxwin/BulkDock/SCRATCH/511015/C32701-P52/C32701-P52.minimised.mol

>  <scratch_subdir>  (603) 
/opt/xchem-fragalysis-2/maxwin/BulkDock/SCRATCH/511015/C32701-P52

>  <fragmenstein_runtime>  (603) 
31.014298677444458

>  <fragmenstein_outcome>  (603) 
too moved

>  <fragmenstein_mode>  (603) 
expansion

>  <fragmenstein_error>  (603) 


$$$$
C32702-P69
     RDKit          3D

 40 43  0  0  0  0  0  0  0  0999 V2000
   -9.5974  -10.2024   11.9030 C   0  0  0  0  0  0  0  0  0  0  0  0
   -8.4614  -10.1224   12.9982 C   0  0  0  0  0  0  0  0  0  0  0  0
   -7.2590  -10.2674   12.2597 C   0  0  0  0  0  0  0  0  0  0  0  0
   -6.9546  -11.5561   11.8329 C   0  0  0  0  0  0  0  0  0  0  0  0
   -7.6593  -12.6448   12.3775 C   0  0  0  0  0  0  0  0  0  0  0  0
   -8.3824  -12.3416   13.5402 C   0  0  0  0  0  0  0  0  0  0  0  0
   -9.2891  -13.0751   14.7553 S   0  0  0  0  0  0  0  0  0  0  0  0
   -8.5335  -12.2626   16.8699 C   0  0  0  0  0  0  0  0  0  0  0  0
   -9.8097  -12.6711   18.3390 N   0  0  0  0  0  0  0  0  0  0  0  0
  -10.1212  -14.3167   19.4368 C   0  0  0  0  0  0  0  0  0  0  0  0
   -9.3203  -15.2112   19.2187 O   0  0  0  0  0  0  0  0  0  0  0  0
  -11.5173  -14.9734   21.1245 C   0  0  0  0  0  0  0  0  0  0  0  0
  -11.0560  -13.4335   21.8754 C   0  0  0  0  0  0  0  0  0  0  0  0
  -11.4627  -15.6757   23.0443 N   0  0  0  0  0  0  0  0  0  0  0  0
  -12.5085  -15.9382   23.9007 C   0  0  0  0  0  0  0  0  0  0  0  0
  -12.4179  -17.0801   24.5334 N   0  0  0  0  0  0  0  0  0  0  0  0
  -10.8350  -17.6568   24.8671 C   0  0  0  0  0  0  0  0  0  0  0  0
   -9.8839  -18.9514   24.4195 C   0  0  0  0  0  0  0  0  0  0  0  0
   -8.5245  -18.9529   24.6883 C   0  0  0  0  0  0  0  0  0  0  0  0
   -8.0832  -17.7609   25.1591 C   0  0  0  0  0  0  0  0  0  0  0  0
   -8.9318  -16.6490   24.9690 C   0  0  0  0  0  0  0  0  0  0  0  0
  -10.3802  -16.6616   24.2188 C   0  0  0  0  0  0  0  0  0  0  0  0
   -8.4845  -11.2929   15.5499 N   0  0  0  0  0  0  0  0  0  0  0  0
   -8.6011  -11.1043   14.0108 C   0  0  0  0  0  0  0  0  0  0  0  0
   -9.8085  -11.2306   11.5875 H   0  0  0  0  0  0  0  0  0  0  0  0
  -10.5219   -9.8110   12.3056 H   0  0  0  0  0  0  0  0  0  0  0  0
   -9.3076   -9.6722   10.9938 H   0  0  0  0  0  0  0  0  0  0  0  0
   -6.8330   -9.4214   11.7259 H   0  0  0  0  0  0  0  0  0  0  0  0
   -6.2184  -11.7181   11.0503 H   0  0  0  0  0  0  0  0  0  0  0  0
   -7.5061  -13.6645   12.0480 H   0  0  0  0  0  0  0  0  0  0  0  0
  -10.5659  -12.0213   18.5211 H   0  0  0  0  0  0  0  0  0  0  0  0
  -12.5265  -15.4000   20.9028 H   0  0  0  0  0  0  0  0  0  0  0  0
  -11.3360  -13.5140   22.9182 H   0  0  0  0  0  0  0  0  0  0  0  0
  -11.6476  -12.8131   21.3678 H   0  0  0  0  0  0  0  0  0  0  0  0
  -10.0593  -13.0124   21.6322 H   0  0  0  0  0  0  0  0  0  0  0  0
  -13.0154  -15.2080   24.4698 H   0  0  0  0  0  0  0  0  0  0  0  0
  -10.4103  -19.8821   24.1689 H   0  0  0  0  0  0  0  0  0  0  0  0
   -7.9129  -19.8425   24.6212 H   0  0  0  0  0  0  0  0  0  0  0  0
   -7.0844  -17.6336   25.5657 H   0  0  0  0  0  0  0  0  0  0  0  0
   -8.5316  -15.7209   25.3961 H   0  0  0  0  0  0  0  0  0  0  0  0
  1  2  1  0
  2  3  2  0
  3  4  1  0
  4  5  2  0
  5  6  1  0
  6  7  1  0
  7  8  1  0
  8  9  1  0
  9 10  1  0
 10 11  2  0
 10 12  1  0
 12 13  1  0
 12 14  1  0
 14 15  1  0
 15 16  2  0
 16 17  1  0
 17 18  2  0
 18 19  1  0
 19 20  2  0
 20 21  1  0
 21 22  2  0
  8 23  2  0
 23 24  1  0
 24  2  1  0
 24  6  2  0
 22 14  1  0
 22 17  1  0
  1 25  1  0
  1 26  1  0
  1 27  1  0
  3 28  1  0
  4 29  1  0
  5 30  1  0
  9 31  1  0
 12 32  1  0
 13 33  1  0
 13 34  1  0
 13 35  1  0
 15 36  1  0
 18 37  1  0
 19 38  1  0
 20 39  1  0
 21 40  1  0
M  END
>  <Energy>  (604) 
1307.7295206973022

>  <compound_id>  (604) 
32702

>  <target_id>  (604) 
1

>  <reference_id>  (604) 
69

>  <inspiration_ids>  (604) 
[69, 52]

>  <energy_score>  (604) 
1196.6197514887162

>  <distance_score>  (604) 
11.521245536513069

>  <path>  (604) 
/opt/xchem-fragalysis-2/maxwin/BulkDock/SCRATCH/511015/C32702-P69/C32702-P69.minimised.mol

>  <scratch_subdir>  (604) 
/opt/xchem-fragalysis-2/maxwin/BulkDock/SCRATCH/511015/C32702-P69

>  <fragmenstein_runtime>  (604) 
23.698384761810303

>  <fragmenstein_outcome>  (604) 
too moved

>  <fragmenstein_mode>  (604) 
expansion

>  <fragmenstein_error>  (604) 


$$$$
C32702-P52
     RDKit          3D

 40 43  0  0  0  0  0  0  0  0999 V2000
  -18.5557   -9.1819   15.7406 C   0  0  0  0  0  0  0  0  0  0  0  0
  -17.7801   -8.3412   16.7190 C   0  0  0  0  0  0  0  0  0  0  0  0
  -17.3560   -7.0518   16.3089 C   0  0  0  0  0  0  0  0  0  0  0  0
  -16.6789   -6.2140   17.1835 C   0  0  0  0  0  0  0  0  0  0  0  0
  -16.3937   -6.6433   18.4871 C   0  0  0  0  0  0  0  0  0  0  0  0
  -16.7597   -7.9506   18.8829 C   0  0  0  0  0  0  0  0  0  0  0  0
  -16.5410   -8.7623   20.4034 S   0  0  0  0  0  0  0  0  0  0  0  0
  -17.3690  -10.1619   19.8750 C   0  0  0  0  0  0  0  0  0  0  0  0
  -17.6544  -11.2983   20.6691 N   0  0  0  0  0  0  0  0  0  0  0  0
  -17.4588  -11.5468   22.1354 C   0  0  0  0  0  0  0  0  0  0  0  0
  -16.9374  -10.8683   22.9813 O   0  0  0  0  0  0  0  0  0  0  0  0
  -18.1674  -12.9017   22.6316 C   0  0  0  0  0  0  0  0  0  0  0  0
  -19.4701  -12.5168   23.3376 C   0  0  0  0  0  0  0  0  0  0  0  0
  -17.4598  -13.9644   23.4624 N   0  0  0  0  0  0  0  0  0  0  0  0
  -17.5230  -15.3021   23.0771 C   0  0  0  0  0  0  0  0  0  0  0  0
  -16.8861  -16.1176   23.8829 N   0  0  0  0  0  0  0  0  0  0  0  0
  -16.4291  -15.3268   24.8973 C   0  0  0  0  0  0  0  0  0  0  0  0
  -15.6296  -15.7023   25.9946 C   0  0  0  0  0  0  0  0  0  0  0  0
  -15.2884  -14.7494   26.9482 C   0  0  0  0  0  0  0  0  0  0  0  0
  -15.7310  -13.4383   26.7954 C   0  0  0  0  0  0  0  0  0  0  0  0
  -16.4964  -13.0288   25.6793 C   0  0  0  0  0  0  0  0  0  0  0  0
  -16.8319  -13.9887   24.7124 C   0  0  0  0  0  0  0  0  0  0  0  0
  -17.7478  -10.0698   18.6063 N   0  0  0  0  0  0  0  0  0  0  0  0
  -17.4456   -8.8099   18.0305 C   0  0  0  0  0  0  0  0  0  0  0  0
  -17.9202   -9.4686   14.8973 H   0  0  0  0  0  0  0  0  0  0  0  0
  -19.4156   -8.6196   15.3619 H   0  0  0  0  0  0  0  0  0  0  0  0
  -18.9385  -10.0921   16.2102 H   0  0  0  0  0  0  0  0  0  0  0  0
  -17.5899   -6.7027   15.3048 H   0  0  0  0  0  0  0  0  0  0  0  0
  -16.3833   -5.2174   16.8656 H   0  0  0  0  0  0  0  0  0  0  0  0
  -15.8850   -5.9862   19.1860 H   0  0  0  0  0  0  0  0  0  0  0  0
  -18.2066  -12.0453   20.2755 H   0  0  0  0  0  0  0  0  0  0  0  0
  -18.4409  -13.4461   21.7181 H   0  0  0  0  0  0  0  0  0  0  0  0
  -19.2690  -12.0005   24.2828 H   0  0  0  0  0  0  0  0  0  0  0  0
  -20.0777  -13.4003   23.5609 H   0  0  0  0  0  0  0  0  0  0  0  0
  -20.0674  -11.8424   22.7145 H   0  0  0  0  0  0  0  0  0  0  0  0
  -18.0359  -15.6124   22.1757 H   0  0  0  0  0  0  0  0  0  0  0  0
  -15.2716  -16.7193   26.0721 H   0  0  0  0  0  0  0  0  0  0  0  0
  -14.6733  -15.0217   27.7995 H   0  0  0  0  0  0  0  0  0  0  0  0
  -15.4550  -12.6947   27.5414 H   0  0  0  0  0  0  0  0  0  0  0  0
  -16.7784  -11.9864   25.5584 H   0  0  0  0  0  0  0  0  0  0  0  0
  1  2  1  0
  2  3  2  0
  3  4  1  0
  4  5  2  0
  5  6  1  0
  6  7  1  0
  7  8  1  0
  8  9  1  0
  9 10  1  0
 10 11  2  0
 10 12  1  0
 12 13  1  0
 12 14  1  0
 14 15  1  0
 15 16  2  0
 16 17  1  0
 17 18  2  0
 18 19  1  0
 19 20  2  0
 20 21  1  0
 21 22  2  0
  8 23  2  0
 23 24  1  0
 24  2  1  0
 24  6  2  0
 22 14  1  0
 22 17  1  0
  1 25  1  0
  1 26  1  0
  1 27  1  0
  3 28  1  0
  4 29  1  0
  5 30  1  0
  9 31  1  0
 12 32  1  0
 13 33  1  0
 13 34  1  0
 13 35  1  0
 15 36  1  0
 18 37  1  0
 19 38  1  0
 20 39  1  0
 21 40  1  0
M  END
>  <Energy>  (605) 
36.896629076893035

>  <compound_id>  (605) 
32702

>  <target_id>  (605) 
1

>  <reference_id>  (605) 
52

>  <inspiration_ids>  (605) 
[69, 52]

>  <energy_score>  (605) 
-74.21314013168967

>  <distance_score>  (605) 
14.866127799274139

>  <path>  (605) 
/opt/xchem-fragalysis-2/maxwin/BulkDock/SCRATCH/511015/C32702-P52/C32702-P52.minimised.mol

>  <scratch_subdir>  (605) 
/opt/xchem-fragalysis-2/maxwin/BulkDock/SCRATCH/511015/C32702-P52

>  <fragmenstein_runtime>  (605) 
33.00567555427551

>  <fragmenstein_outcome>  (605) 
too moved

>  <fragmenstein_mode>  (605) 
expansion

>  <fragmenstein_error>  (605) 


$$$$
C32684-P69
     RDKit          3D

 36 39  0  0  0  0  0  0  0  0999 V2000
  -11.1628  -10.6552   10.7357 C   0  0  0  0  0  0  0  0  0  0  0  0
   -9.6982  -10.3537   10.8725 C   0  0  0  0  0  0  0  0  0  0  0  0
   -8.9486  -10.0671    9.7021 C   0  0  0  0  0  0  0  0  0  0  0  0
   -7.5647   -9.8568    9.7307 C   0  0  0  0  0  0  0  0  0  0  0  0
   -6.8449  -10.1285   10.8809 C   0  0  0  0  0  0  0  0  0  0  0  0
   -7.6159  -10.5680   11.9531 C   0  0  0  0  0  0  0  0  0  0  0  0
   -7.3548  -11.8463   13.0104 S   0  0  0  0  0  0  0  0  0  0  0  0
   -8.5414  -11.3359   14.2287 C   0  0  0  0  0  0  0  0  0  0  0  0
   -9.2514  -11.8702   15.5303 N   0  0  0  0  0  0  0  0  0  0  0  0
   -8.5788  -12.2191   17.3191 C   0  0  0  0  0  0  0  0  0  0  0  0
   -7.4752  -12.1780   17.7473 O   0  0  0  0  0  0  0  0  0  0  0  0
  -10.0085  -12.7778   18.1971 N   0  0  0  0  0  0  0  0  0  0  0  0
  -10.1515  -13.5378   19.7772 N   0  0  0  0  0  0  0  0  0  0  0  0
  -10.0770  -14.9093   19.3589 C   0  0  0  0  0  0  0  0  0  0  0  0
  -11.3980  -15.4944   19.8404 N   0  0  0  0  0  0  0  0  0  0  0  0
  -12.2046  -15.1919   20.9620 C   0  0  0  0  0  0  0  0  0  0  0  0
  -13.3558  -16.0428   21.7906 C   0  0  0  0  0  0  0  0  0  0  0  0
  -13.7516  -15.9876   23.2092 C   0  0  0  0  0  0  0  0  0  0  0  0
  -12.7343  -15.3199   23.8920 C   0  0  0  0  0  0  0  0  0  0  0  0
  -11.4920  -14.5268   22.9710 C   0  0  0  0  0  0  0  0  0  0  0  0
  -11.3119  -13.7412   21.3510 C   0  0  0  0  0  0  0  0  0  0  0  0
   -9.3693  -10.5983   13.4490 N   0  0  0  0  0  0  0  0  0  0  0  0
   -8.9749  -10.4591   12.0850 C   0  0  0  0  0  0  0  0  0  0  0  0
  -11.7547  -10.1133   11.4728 H   0  0  0  0  0  0  0  0  0  0  0  0
  -11.3279  -11.7294   10.8656 H   0  0  0  0  0  0  0  0  0  0  0  0
  -11.5424  -10.3788    9.7467 H   0  0  0  0  0  0  0  0  0  0  0  0
   -9.4815   -9.9678    8.7592 H   0  0  0  0  0  0  0  0  0  0  0  0
   -7.0170   -9.5770    8.8372 H   0  0  0  0  0  0  0  0  0  0  0  0
   -5.7652  -10.2208   10.8627 H   0  0  0  0  0  0  0  0  0  0  0  0
  -10.2493  -11.9091   15.4944 H   0  0  0  0  0  0  0  0  0  0  0  0
  -10.8306  -12.6270   17.6310 H   0  0  0  0  0  0  0  0  0  0  0  0
   -9.1451  -15.4016   19.1014 H   0  0  0  0  0  0  0  0  0  0  0  0
  -12.3612  -16.2826   22.1288 H   0  0  0  0  0  0  0  0  0  0  0  0
  -14.6896  -16.3421   23.6001 H   0  0  0  0  0  0  0  0  0  0  0  0
  -12.8405  -15.0507   24.9380 H   0  0  0  0  0  0  0  0  0  0  0  0
  -10.9900  -15.4408   23.1713 H   0  0  0  0  0  0  0  0  0  0  0  0
  1  2  1  0
  2  3  2  0
  3  4  1  0
  4  5  2  0
  5  6  1  0
  6  7  1  0
  7  8  1  0
  8  9  1  0
  9 10  1  0
 10 11  2  0
 10 12  1  0
 12 13  1  0
 13 14  1  0
 14 15  2  0
 15 16  1  0
 16 17  2  0
 17 18  1  0
 18 19  2  0
 19 20  1  0
 20 21  2  0
  8 22  2  0
 22 23  1  0
 23  2  1  0
 23  6  2  0
 21 13  1  0
 21 16  1  0
  1 24  1  0
  1 25  1  0
  1 26  1  0
  3 27  1  0
  4 28  1  0
  5 29  1  0
  9 30  1  0
 12 31  1  0
 14 32  1  0
 17 33  1  0
 18 34  1  0
 19 35  1  0
 20 36  1  0
M  END
>  <Energy>  (606) 
732.44831117636988

>  <compound_id>  (606) 
32684

>  <target_id>  (606) 
1

>  <reference_id>  (606) 
69

>  <inspiration_ids>  (606) 
[69, 52]

>  <energy_score>  (606) 
719.0862883510542

>  <distance_score>  (606) 
12.314605519110517

>  <path>  (606) 
/opt/xchem-fragalysis-2/maxwin/BulkDock/SCRATCH/511015/C32684-P69/C32684-P69.minimised.mol

>  <scratch_subdir>  (606) 
/opt/xchem-fragalysis-2/maxwin/BulkDock/SCRATCH/511015/C32684-P69

>  <fragmenstein_runtime>  (606) 
21.253016471862793

>  <fragmenstein_outcome>  (606) 
too moved

>  <fragmenstein_mode>  (606) 
expansion

>  <fragmenstein_error>  (606) 


$$$$
C32684-P52
     RDKit          3D

 36 39  0  0  0  0  0  0  0  0999 V2000
   -6.9319   -2.8702   20.0855 C   0  0  0  0  0  0  0  0  0  0  0  0
   -7.6679   -3.4333   18.8996 C   0  0  0  0  0  0  0  0  0  0  0  0
   -7.5339   -2.7721   17.6476 C   0  0  0  0  0  0  0  0  0  0  0  0
   -8.1562   -3.2494   16.5043 C   0  0  0  0  0  0  0  0  0  0  0  0
   -8.9356   -4.3922   16.5810 C   0  0  0  0  0  0  0  0  0  0  0  0
   -9.0419   -5.0676   17.8198 C   0  0  0  0  0  0  0  0  0  0  0  0
   -9.8475   -6.5479   18.0599 S   0  0  0  0  0  0  0  0  0  0  0  0
   -9.2974   -6.5871   20.0317 C   0  0  0  0  0  0  0  0  0  0  0  0
   -9.9054   -7.9184   21.1972 N   0  0  0  0  0  0  0  0  0  0  0  0
  -11.6006   -8.4124   21.6568 C   0  0  0  0  0  0  0  0  0  0  0  0
  -12.6439   -7.9133   21.3573 O   0  0  0  0  0  0  0  0  0  0  0  0
  -11.4165   -9.8784   22.5652 N   0  0  0  0  0  0  0  0  0  0  0  0
  -12.3660  -10.6862   23.1941 N   0  0  0  0  0  0  0  0  0  0  0  0
  -13.6947  -10.7206   22.8725 C   0  0  0  0  0  0  0  0  0  0  0  0
  -14.3957  -11.4627   23.7136 N   0  0  0  0  0  0  0  0  0  0  0  0
  -13.5356  -11.8104   24.7208 C   0  0  0  0  0  0  0  0  0  0  0  0
  -13.7765  -12.6240   25.8564 C   0  0  0  0  0  0  0  0  0  0  0  0
  -12.7890  -12.7802   26.8328 C   0  0  0  0  0  0  0  0  0  0  0  0
  -11.5872  -12.0984   26.6929 C   0  0  0  0  0  0  0  0  0  0  0  0
  -11.3166  -11.3110   25.5457 C   0  0  0  0  0  0  0  0  0  0  0  0
  -12.2825  -11.2132   24.5131 C   0  0  0  0  0  0  0  0  0  0  0  0
   -8.5798   -5.4617   20.1819 N   0  0  0  0  0  0  0  0  0  0  0  0
   -8.4365   -4.6325   18.9928 C   0  0  0  0  0  0  0  0  0  0  0  0
   -5.8534   -2.9985   19.9497 H   0  0  0  0  0  0  0  0  0  0  0  0
   -7.2227   -3.3706   21.0142 H   0  0  0  0  0  0  0  0  0  0  0  0
   -7.1549   -1.8042   20.1983 H   0  0  0  0  0  0  0  0  0  0  0  0
   -6.9123   -1.8815   17.5836 H   0  0  0  0  0  0  0  0  0  0  0  0
   -8.0286   -2.7660   15.5425 H   0  0  0  0  0  0  0  0  0  0  0  0
   -9.4167   -4.7917   15.6916 H   0  0  0  0  0  0  0  0  0  0  0  0
   -9.2312   -8.4849   21.6728 H   0  0  0  0  0  0  0  0  0  0  0  0
  -10.4428  -10.1217   22.6064 H   0  0  0  0  0  0  0  0  0  0  0  0
  -14.0905  -10.2152   21.9998 H   0  0  0  0  0  0  0  0  0  0  0  0
  -14.7501  -13.0906   25.9731 H   0  0  0  0  0  0  0  0  0  0  0  0
  -12.9852  -13.3875   27.7129 H   0  0  0  0  0  0  0  0  0  0  0  0
  -10.8289  -12.1829   27.4693 H   0  0  0  0  0  0  0  0  0  0  0  0
  -10.3417  -10.8540   25.4557 H   0  0  0  0  0  0  0  0  0  0  0  0
  1  2  1  0
  2  3  2  0
  3  4  1  0
  4  5  2  0
  5  6  1  0
  6  7  1  0
  7  8  1  0
  8  9  1  0
  9 10  1  0
 10 11  2  0
 10 12  1  0
 12 13  1  0
 13 14  1  0
 14 15  2  0
 15 16  1  0
 16 17  2  0
 17 18  1  0
 18 19  2  0
 19 20  1  0
 20 21  2  0
  8 22  2  0
 22 23  1  0
 23  2  1  0
 23  6  2  0
 21 13  1  0
 21 16  1  0
  1 24  1  0
  1 25  1  0
  1 26  1  0
  3 27  1  0
  4 28  1  0
  5 29  1  0
  9 30  1  0
 12 31  1  0
 14 32  1  0
 17 33  1  0
 18 34  1  0
 19 35  1  0
 20 36  1  0
M  END
>  <Energy>  (607) 
164.40895489888743

>  <compound_id>  (607) 
32684

>  <target_id>  (607) 
1

>  <reference_id>  (607) 
52

>  <inspiration_ids>  (607) 
[69, 52]

>  <energy_score>  (607) 
151.04693207355922

>  <distance_score>  (607) 
12.913957507192553

>  <path>  (607) 
/opt/xchem-fragalysis-2/maxwin/BulkDock/SCRATCH/511015/C32684-P52/C32684-P52.minimised.mol

>  <scratch_subdir>  (607) 
/opt/xchem-fragalysis-2/maxwin/BulkDock/SCRATCH/511015/C32684-P52

>  <fragmenstein_runtime>  (607) 
24.883318185806274

>  <fragmenstein_outcome>  (607) 
too moved

>  <fragmenstein_mode>  (607) 
expansion

>  <fragmenstein_error>  (607) 


$$$$
C32685-P69
     RDKit          3D

 42 45  0  0  0  0  0  0  0  0999 V2000
   -7.2371   -5.0449   16.8975 C   0  0  0  0  0  0  0  0  0  0  0  0
   -7.2747   -5.9366   15.6874 C   0  0  0  0  0  0  0  0  0  0  0  0
   -7.2882   -5.2828   14.3317 C   0  0  0  0  0  0  0  0  0  0  0  0
   -6.8090   -6.0025   13.0813 C   0  0  0  0  0  0  0  0  0  0  0  0
   -6.7033   -7.5068   13.1316 C   0  0  0  0  0  0  0  0  0  0  0  0
   -7.6729   -8.0453   14.3563 C   0  0  0  0  0  0  0  0  0  0  0  0
   -8.0508  -10.0676   14.7381 S   0  0  0  0  0  0  0  0  0  0  0  0
   -6.8801  -10.5185   16.7546 C   0  0  0  0  0  0  0  0  0  0  0  0
   -7.4973  -11.7547   18.1663 N   0  0  0  0  0  0  0  0  0  0  0  0
   -9.2580  -12.1035   18.8901 C   0  0  0  0  0  0  0  0  0  0  0  0
  -10.2769  -11.6245   18.4543 O   0  0  0  0  0  0  0  0  0  0  0  0
   -9.2634  -13.1437   20.4884 N   0  0  0  0  0  0  0  0  0  0  0  0
  -10.7929  -13.5863   21.9091 C   0  0  0  0  0  0  0  0  0  0  0  0
  -11.1719  -15.2833   23.3385 C   0  0  0  0  0  0  0  0  0  0  0  0
  -10.4370  -16.7415   24.6769 N   0  0  0  0  0  0  0  0  0  0  0  0
   -9.6128  -15.9652   26.1074 C   0  0  0  0  0  0  0  0  0  0  0  0
  -10.4555  -15.8325   27.1188 N   0  0  0  0  0  0  0  0  0  0  0  0
  -10.4969  -17.1659   27.4231 C   0  0  0  0  0  0  0  0  0  0  0  0
  -10.9475  -18.2029   28.9731 C   0  0  0  0  0  0  0  0  0  0  0  0
  -10.2932  -20.0972   29.3121 C   0  0  0  0  0  0  0  0  0  0  0  0
   -9.2478  -20.2628   27.7001 C   0  0  0  0  0  0  0  0  0  0  0  0
   -8.6991  -18.9536   26.6743 C   0  0  0  0  0  0  0  0  0  0  0  0
   -9.6871  -17.4791   26.2445 C   0  0  0  0  0  0  0  0  0  0  0  0
   -6.8948   -8.8428   16.8872 N   0  0  0  0  0  0  0  0  0  0  0  0
   -7.1149   -7.4021   15.7472 C   0  0  0  0  0  0  0  0  0  0  0  0
   -8.1640   -4.4678   16.9660 H   0  0  0  0  0  0  0  0  0  0  0  0
   -6.3887   -4.3568   16.8301 H   0  0  0  0  0  0  0  0  0  0  0  0
   -7.1215   -5.6302   17.8146 H   0  0  0  0  0  0  0  0  0  0  0  0
   -7.3301   -4.1935   14.3494 H   0  0  0  0  0  0  0  0  0  0  0  0
   -6.1921   -5.6473   12.2628 H   0  0  0  0  0  0  0  0  0  0  0  0
   -6.2003   -8.1427   12.4392 H   0  0  0  0  0  0  0  0  0  0  0  0
   -6.8016  -12.1938   18.7421 H   0  0  0  0  0  0  0  0  0  0  0  0
   -8.3817  -13.5100   20.6253 H   0  0  0  0  0  0  0  0  0  0  0  0
  -11.0420  -12.5709   22.2724 H   0  0  0  0  0  0  0  0  0  0  0  0
  -11.5292  -13.5255   21.2075 H   0  0  0  0  0  0  0  0  0  0  0  0
  -11.7991  -15.9875   22.7832 H   0  0  0  0  0  0  0  0  0  0  0  0
  -12.0732  -15.1370   23.9822 H   0  0  0  0  0  0  0  0  0  0  0  0
   -8.6664  -15.4640   25.8496 H   0  0  0  0  0  0  0  0  0  0  0  0
  -11.9456  -17.8169   29.2243 H   0  0  0  0  0  0  0  0  0  0  0  0
  -10.9147  -20.8929   29.7199 H   0  0  0  0  0  0  0  0  0  0  0  0
   -9.0564  -21.2912   27.3473 H   0  0  0  0  0  0  0  0  0  0  0  0
   -8.1835  -19.3865   25.7906 H   0  0  0  0  0  0  0  0  0  0  0  0
  1  2  1  0
  2  3  2  0
  3  4  1  0
  4  5  2  0
  5  6  1  0
  6  7  1  0
  7  8  1  0
  8  9  1  0
  9 10  1  0
 10 11  2  0
 10 12  1  0
 12 13  1  0
 13 14  1  0
 14 15  1  0
 15 16  1  0
 16 17  2  0
 17 18  1  0
 18 19  2  0
 19 20  1  0
 20 21  2  0
 21 22  1  0
 22 23  2  0
  8 24  2  0
 24 25  1  0
 25  2  1  0
 25  6  2  0
 23 15  1  0
 23 18  1  0
  1 26  1  0
  1 27  1  0
  1 28  1  0
  3 29  1  0
  4 30  1  0
  5 31  1  0
  9 32  1  0
 12 33  1  0
 13 34  1  0
 13 35  1  0
 14 36  1  0
 14 37  1  0
 16 38  1  0
 19 39  1  0
 20 40  1  0
 21 41  1  0
 22 42  1  0
M  END
>  <Energy>  (608) 
1826.7109635008476

>  <compound_id>  (608) 
32685

>  <target_id>  (608) 
1

>  <reference_id>  (608) 
69

>  <inspiration_ids>  (608) 
[69, 52]

>  <energy_score>  (608) 
1797.639787066552

>  <distance_score>  (608) 
9.212771728843848

>  <path>  (608) 
/opt/xchem-fragalysis-2/maxwin/BulkDock/SCRATCH/511015/C32685-P69/C32685-P69.minimised.mol

>  <scratch_subdir>  (608) 
/opt/xchem-fragalysis-2/maxwin/BulkDock/SCRATCH/511015/C32685-P69

>  <fragmenstein_runtime>  (608) 
40.03672647476196

>  <fragmenstein_outcome>  (608) 
too moved

>  <fragmenstein_mode>  (608) 
expansion

>  <fragmenstein_error>  (608) 


$$$$
C32685-P52
     RDKit          3D

 42 45  0  0  0  0  0  0  0  0999 V2000
   -8.1222   -5.5372    5.2084 C   0  0  0  0  0  0  0  0  0  0  0  0
   -6.7230   -4.8923    5.4855 C   0  0  0  0  0  0  0  0  0  0  0  0
   -6.7788   -3.5262    5.0851 C   0  0  0  0  0  0  0  0  0  0  0  0
   -5.8528   -2.6305    5.5402 C   0  0  0  0  0  0  0  0  0  0  0  0
   -4.7701   -3.1086    6.2608 C   0  0  0  0  0  0  0  0  0  0  0  0
   -4.6351   -4.5051    6.6972 C   0  0  0  0  0  0  0  0  0  0  0  0
   -4.8287   -6.0491    8.0549 S   0  0  0  0  0  0  0  0  0  0  0  0
   -6.2896   -6.1193    9.7380 C   0  0  0  0  0  0  0  0  0  0  0  0
   -6.9115   -6.7771   11.3223 N   0  0  0  0  0  0  0  0  0  0  0  0
   -7.4013   -5.8924   12.9182 C   0  0  0  0  0  0  0  0  0  0  0  0
   -7.2610   -4.7214   13.0855 O   0  0  0  0  0  0  0  0  0  0  0  0
   -8.0173   -7.0182   14.2602 N   0  0  0  0  0  0  0  0  0  0  0  0
   -8.4320   -6.6818   16.1877 C   0  0  0  0  0  0  0  0  0  0  0  0
   -9.7007   -7.2725   17.7971 C   0  0  0  0  0  0  0  0  0  0  0  0
  -10.3883   -8.4378   19.2455 N   0  0  0  0  0  0  0  0  0  0  0  0
  -10.1755   -8.4075   21.2072 C   0  0  0  0  0  0  0  0  0  0  0  0
  -10.9942   -7.6913   21.9500 N   0  0  0  0  0  0  0  0  0  0  0  0
  -11.8256   -8.6616   21.8195 C   0  0  0  0  0  0  0  0  0  0  0  0
  -11.5399  -10.1576   22.6285 C   0  0  0  0  0  0  0  0  0  0  0  0
  -11.7581  -11.2935   22.0485 C   0  0  0  0  0  0  0  0  0  0  0  0
  -12.7613  -10.8872   21.2075 C   0  0  0  0  0  0  0  0  0  0  0  0
  -13.0991   -9.2896   20.6715 C   0  0  0  0  0  0  0  0  0  0  0  0
  -12.1431   -8.5504   20.1049 C   0  0  0  0  0  0  0  0  0  0  0  0
   -5.8889   -6.6056    8.1261 N   0  0  0  0  0  0  0  0  0  0  0  0
   -5.5353   -5.4818    6.5562 C   0  0  0  0  0  0  0  0  0  0  0  0
   -8.8422   -4.8023    4.8287 H   0  0  0  0  0  0  0  0  0  0  0  0
   -8.5699   -5.9189    6.1290 H   0  0  0  0  0  0  0  0  0  0  0  0
   -8.0748   -6.3154    4.4493 H   0  0  0  0  0  0  0  0  0  0  0  0
   -7.6222   -3.1450    4.5117 H   0  0  0  0  0  0  0  0  0  0  0  0
   -5.9302   -1.5813    5.2937 H   0  0  0  0  0  0  0  0  0  0  0  0
   -3.9800   -2.3884    6.4431 H   0  0  0  0  0  0  0  0  0  0  0  0
   -7.0421   -7.7723   11.4348 H   0  0  0  0  0  0  0  0  0  0  0  0
   -8.1375   -7.9295   13.8888 H   0  0  0  0  0  0  0  0  0  0  0  0
   -7.5639   -7.2706   16.4385 H   0  0  0  0  0  0  0  0  0  0  0  0
   -8.3186   -5.5982   16.2697 H   0  0  0  0  0  0  0  0  0  0  0  0
  -10.6767   -7.0963   17.3917 H   0  0  0  0  0  0  0  0  0  0  0  0
   -9.4604   -6.4721   18.5151 H   0  0  0  0  0  0  0  0  0  0  0  0
   -9.5710   -9.2015   21.6855 H   0  0  0  0  0  0  0  0  0  0  0  0
  -11.8880  -10.2086   23.6938 H   0  0  0  0  0  0  0  0  0  0  0  0
  -10.9300  -11.5550   21.4180 H   0  0  0  0  0  0  0  0  0  0  0  0
  -13.8138  -11.2829   21.3158 H   0  0  0  0  0  0  0  0  0  0  0  0
  -14.1522   -9.0193   20.4519 H   0  0  0  0  0  0  0  0  0  0  0  0
  1  2  1  0
  2  3  2  0
  3  4  1  0
  4  5  2  0
  5  6  1  0
  6  7  1  0
  7  8  1  0
  8  9  1  0
  9 10  1  0
 10 11  2  0
 10 12  1  0
 12 13  1  0
 13 14  1  0
 14 15  1  0
 15 16  1  0
 16 17  2  0
 17 18  1  0
 18 19  2  0
 19 20  1  0
 20 21  2  0
 21 22  1  0
 22 23  2  0
  8 24  2  0
 24 25  1  0
 25  2  1  0
 25  6  2  0
 23 15  1  0
 23 18  1  0
  1 26  1  0
  1 27  1  0
  1 28  1  0
  3 29  1  0
  4 30  1  0
  5 31  1  0
  9 32  1  0
 12 33  1  0
 13 34  1  0
 13 35  1  0
 14 36  1  0
 14 37  1  0
 16 38  1  0
 19 39  1  0
 20 40  1  0
 21 41  1  0
 22 42  1  0
M  END
>  <Energy>  (609) 
1694.6574696743996

>  <compound_id>  (609) 
32685

>  <target_id>  (609) 
1

>  <reference_id>  (609) 
52

>  <inspiration_ids>  (609) 
[69, 52]

>  <energy_score>  (609) 
1665.5862932401396

>  <distance_score>  (609) 
12.753179006647807

>  <path>  (609) 
/opt/xchem-fragalysis-2/maxwin/BulkDock/SCRATCH/511015/C32685-P52/C32685-P52.minimised.mol

>  <scratch_subdir>  (609) 
/opt/xchem-fragalysis-2/maxwin/BulkDock/SCRATCH/511015/C32685-P52

>  <fragmenstein_runtime>  (609) 
51.23024654388428

>  <fragmenstein_outcome>  (609) 
too moved

>  <fragmenstein_mode>  (609) 
expansion

>  <fragmenstein_error>  (609) 


$$$$
C32708-P69
     RDKit          3D

 37 40  0  0  0  0  0  0  0  0999 V2000
   -9.4019  -14.4465   12.7942 C   0  0  0  0  0  0  0  0  0  0  0  0
   -7.9814  -14.4815   12.3190 C   0  0  0  0  0  0  0  0  0  0  0  0
   -7.5123  -13.4824   11.4331 C   0  0  0  0  0  0  0  0  0  0  0  0
   -6.2025  -13.5037   10.9696 C   0  0  0  0  0  0  0  0  0  0  0  0
   -5.3320  -14.5319   11.3614 C   0  0  0  0  0  0  0  0  0  0  0  0
   -5.7882  -15.5100   12.2803 C   0  0  0  0  0  0  0  0  0  0  0  0
   -4.9676  -16.8926   12.9834 S   0  0  0  0  0  0  0  0  0  0  0  0
   -6.2630  -17.1572   14.1161 C   0  0  0  0  0  0  0  0  0  0  0  0
   -6.0033  -18.0361   15.1875 N   0  0  0  0  0  0  0  0  0  0  0  0
   -6.6987  -18.2139   16.4907 C   0  0  0  0  0  0  0  0  0  0  0  0
   -7.6040  -17.5978   16.9824 O   0  0  0  0  0  0  0  0  0  0  0  0
   -6.1689  -19.4891   17.3361 C   0  0  0  0  0  0  0  0  0  0  0  0
   -6.2104  -19.4620   18.8540 N   0  0  0  0  0  0  0  0  0  0  0  0
   -5.4643  -18.5756   19.6032 C   0  0  0  0  0  0  0  0  0  0  0  0
   -5.5533  -18.7787   20.8984 N   0  0  0  0  0  0  0  0  0  0  0  0
   -6.3904  -19.8466   21.0505 C   0  0  0  0  0  0  0  0  0  0  0  0
   -6.8207  -20.4565   22.2511 C   0  0  0  0  0  0  0  0  0  0  0  0
   -7.6844  -21.5491   22.1953 C   0  0  0  0  0  0  0  0  0  0  0  0
   -8.1117  -22.0165   20.9544 C   0  0  0  0  0  0  0  0  0  0  0  0
   -7.6900  -21.4204   19.7405 C   0  0  0  0  0  0  0  0  0  0  0  0
   -6.8124  -20.3227   19.7970 C   0  0  0  0  0  0  0  0  0  0  0  0
   -7.3238  -16.4256   13.8359 N   0  0  0  0  0  0  0  0  0  0  0  0
   -7.0816  -15.4786   12.7993 C   0  0  0  0  0  0  0  0  0  0  0  0
   -9.7970  -15.4615   12.9024 H   0  0  0  0  0  0  0  0  0  0  0  0
   -9.4457  -13.9452   13.7634 H   0  0  0  0  0  0  0  0  0  0  0  0
  -10.0447  -13.9259   12.0780 H   0  0  0  0  0  0  0  0  0  0  0  0
   -8.1839  -12.6915   11.1035 H   0  0  0  0  0  0  0  0  0  0  0  0
   -5.8562  -12.7341   10.2836 H   0  0  0  0  0  0  0  0  0  0  0  0
   -4.3144  -14.5657   10.9834 H   0  0  0  0  0  0  0  0  0  0  0  0
   -5.2302  -18.6822   15.1327 H   0  0  0  0  0  0  0  0  0  0  0  0
   -5.1167  -19.6745   17.0948 H   0  0  0  0  0  0  0  0  0  0  0  0
   -6.7682  -20.3562   17.0410 H   0  0  0  0  0  0  0  0  0  0  0  0
   -4.8700  -17.8011   19.1382 H   0  0  0  0  0  0  0  0  0  0  0  0
   -6.4658  -20.0655   23.1983 H   0  0  0  0  0  0  0  0  0  0  0  0
   -8.0172  -22.0316   23.1093 H   0  0  0  0  0  0  0  0  0  0  0  0
   -8.7912  -22.8664   20.9108 H   0  0  0  0  0  0  0  0  0  0  0  0
   -8.0528  -21.8014   18.7909 H   0  0  0  0  0  0  0  0  0  0  0  0
  1  2  1  0
  2  3  2  0
  3  4  1  0
  4  5  2  0
  5  6  1  0
  6  7  1  0
  7  8  1  0
  8  9  1  0
  9 10  1  0
 10 11  2  0
 10 12  1  0
 12 13  1  0
 13 14  1  0
 14 15  2  0
 15 16  1  0
 16 17  2  0
 17 18  1  0
 18 19  2  0
 19 20  1  0
 20 21  2  0
  8 22  2  0
 22 23  1  0
 23  2  1  0
 23  6  2  0
 21 13  1  0
 21 16  1  0
  1 24  1  0
  1 25  1  0
  1 26  1  0
  3 27  1  0
  4 28  1  0
  5 29  1  0
  9 30  1  0
 12 31  1  0
 12 32  1  0
 14 33  1  0
 17 34  1  0
 18 35  1  0
 19 36  1  0
 20 37  1  0
M  END
>  <Energy>  (610) 
35.697065408081329

>  <compound_id>  (610) 
32708

>  <target_id>  (610) 
1

>  <reference_id>  (610) 
69

>  <inspiration_ids>  (610) 
[69, 52]

>  <energy_score>  (610) 
-53.67915176361237

>  <distance_score>  (610) 
14.081489949156389

>  <path>  (610) 
/opt/xchem-fragalysis-2/maxwin/BulkDock/SCRATCH/511015/C32708-P69/C32708-P69.minimised.mol

>  <scratch_subdir>  (610) 
/opt/xchem-fragalysis-2/maxwin/BulkDock/SCRATCH/511015/C32708-P69

>  <fragmenstein_runtime>  (610) 
27.94223666191101

>  <fragmenstein_outcome>  (610) 
too moved

>  <fragmenstein_mode>  (610) 
expansion

>  <fragmenstein_error>  (610) 


$$$$
C32708-P52
     RDKit          3D

 37 40  0  0  0  0  0  0  0  0999 V2000
   -9.7159   -5.2285    6.0540 C   0  0  0  0  0  0  0  0  0  0  0  0
   -9.0403   -4.6992    7.2928 C   0  0  0  0  0  0  0  0  0  0  0  0
   -7.8685   -3.0801    6.8614 C   0  0  0  0  0  0  0  0  0  0  0  0
   -5.9915   -2.8781    7.4821 C   0  0  0  0  0  0  0  0  0  0  0  0
   -5.3030   -4.6976    8.4340 C   0  0  0  0  0  0  0  0  0  0  0  0
   -6.3971   -5.9171    9.5734 C   0  0  0  0  0  0  0  0  0  0  0  0
   -6.4445   -7.6812   10.0061 S   0  0  0  0  0  0  0  0  0  0  0  0
   -7.4039   -6.9592   11.2286 C   0  0  0  0  0  0  0  0  0  0  0  0
   -7.0045   -7.4007   12.5291 N   0  0  0  0  0  0  0  0  0  0  0  0
   -5.7608   -8.1710   12.9827 C   0  0  0  0  0  0  0  0  0  0  0  0
   -4.7832   -8.5187   12.3604 O   0  0  0  0  0  0  0  0  0  0  0  0
   -5.6594   -8.5505   14.5513 C   0  0  0  0  0  0  0  0  0  0  0  0
   -4.7666   -9.7404   14.9605 N   0  0  0  0  0  0  0  0  0  0  0  0
   -4.7823  -10.9379   14.2801 C   0  0  0  0  0  0  0  0  0  0  0  0
   -4.1764  -11.9216   14.9077 N   0  0  0  0  0  0  0  0  0  0  0  0
   -3.5785  -11.3441   15.9841 C   0  0  0  0  0  0  0  0  0  0  0  0
   -2.7026  -11.9343   16.9220 C   0  0  0  0  0  0  0  0  0  0  0  0
   -2.3109  -11.2337   18.0622 C   0  0  0  0  0  0  0  0  0  0  0  0
   -2.6578   -9.8995   18.1757 C   0  0  0  0  0  0  0  0  0  0  0  0
   -3.3569   -9.2385   17.1391 C   0  0  0  0  0  0  0  0  0  0  0  0
   -3.8992   -9.9816   16.0595 C   0  0  0  0  0  0  0  0  0  0  0  0
   -8.4060   -6.2060   10.5428 N   0  0  0  0  0  0  0  0  0  0  0  0
   -8.1743   -5.8101    8.7692 C   0  0  0  0  0  0  0  0  0  0  0  0
  -10.3051   -4.4331    5.5911 H   0  0  0  0  0  0  0  0  0  0  0  0
  -10.3687   -6.0465    6.3056 H   0  0  0  0  0  0  0  0  0  0  0  0
   -8.9617   -5.5812    5.3461 H   0  0  0  0  0  0  0  0  0  0  0  0
   -8.1018   -2.5934    5.9059 H   0  0  0  0  0  0  0  0  0  0  0  0
   -5.3518   -2.4969    6.6494 H   0  0  0  0  0  0  0  0  0  0  0  0
   -4.8752   -5.4305    7.6520 H   0  0  0  0  0  0  0  0  0  0  0  0
   -7.5892   -7.2081   13.3304 H   0  0  0  0  0  0  0  0  0  0  0  0
   -5.2252   -7.6894   15.0617 H   0  0  0  0  0  0  0  0  0  0  0  0
   -6.6499   -8.7993   14.9409 H   0  0  0  0  0  0  0  0  0  0  0  0
   -5.2561  -11.0300   13.3109 H   0  0  0  0  0  0  0  0  0  0  0  0
   -2.3836  -12.9587   16.7621 H   0  0  0  0  0  0  0  0  0  0  0  0
   -1.6968  -11.7120   18.8171 H   0  0  0  0  0  0  0  0  0  0  0  0
   -2.3200   -9.3247   19.0363 H   0  0  0  0  0  0  0  0  0  0  0  0
   -3.4931   -8.1669   17.2071 H   0  0  0  0  0  0  0  0  0  0  0  0
  1  2  1  0
  2  3  2  0
  3  4  1  0
  4  5  2  0
  5  6  1  0
  6  7  1  0
  7  8  1  0
  8  9  1  0
  9 10  1  0
 10 11  2  0
 10 12  1  0
 12 13  1  0
 13 14  1  0
 14 15  2  0
 15 16  1  0
 16 17  2  0
 17 18  1  0
 18 19  2  0
 19 20  1  0
 20 21  2  0
  8 22  2  0
 22 23  1  0
 23  2  1  0
 23  6  2  0
 21 13  1  0
 21 16  1  0
  1 24  1  0
  1 25  1  0
  1 26  1  0
  3 27  1  0
  4 28  1  0
  5 29  1  0
  9 30  1  0
 12 31  1  0
 12 32  1  0
 14 33  1  0
 17 34  1  0
 18 35  1  0
 19 36  1  0
 20 37  1  0
M  END
>  <Energy>  (611) 
1017.2698412605065

>  <compound_id>  (611) 
32708

>  <target_id>  (611) 
1

>  <reference_id>  (611) 
52

>  <inspiration_ids>  (611) 
[69, 52]

>  <energy_score>  (611) 
927.8936240888193

>  <distance_score>  (611) 
15.483859321908493

>  <path>  (611) 
/opt/xchem-fragalysis-2/maxwin/BulkDock/SCRATCH/511015/C32708-P52/C32708-P52.minimised.mol

>  <scratch_subdir>  (611) 
/opt/xchem-fragalysis-2/maxwin/BulkDock/SCRATCH/511015/C32708-P52

>  <fragmenstein_runtime>  (611) 
32.943780183792114

>  <fragmenstein_outcome>  (611) 
too moved

>  <fragmenstein_mode>  (611) 
expansion

>  <fragmenstein_error>  (611) 


$$$$
C32709-P69
     RDKit          3D

 41 45  0  0  0  0  0  0  0  0999 V2000
   -6.6177  -22.6538   20.9140 C   0  0  0  0  0  0  0  0  0  0  0  0
   -6.8101  -22.7445   22.2636 C   0  0  0  0  0  0  0  0  0  0  0  0
   -7.9760  -22.4660   22.8639 N   0  0  0  0  0  0  0  0  0  0  0  0
   -9.0362  -22.0266   22.1212 C   0  0  0  0  0  0  0  0  0  0  0  0
  -10.2806  -22.0565   22.9307 N   0  0  0  0  0  0  0  0  0  0  0  0
  -11.3483  -21.2649   22.7275 C   0  0  0  0  0  0  0  0  0  0  0  0
  -12.3742  -21.5171   23.5037 N   0  0  0  0  0  0  0  0  0  0  0  0
  -12.0391  -22.5532   24.2759 C   0  0  0  0  0  0  0  0  0  0  0  0
  -12.8230  -23.3608   25.1095 C   0  0  0  0  0  0  0  0  0  0  0  0
  -12.2894  -24.5660   25.6322 C   0  0  0  0  0  0  0  0  0  0  0  0
  -10.9538  -24.8130   25.6175 C   0  0  0  0  0  0  0  0  0  0  0  0
  -10.2061  -24.0160   24.7743 C   0  0  0  0  0  0  0  0  0  0  0  0
  -10.7456  -22.9486   23.9831 C   0  0  0  0  0  0  0  0  0  0  0  0
   -8.9319  -21.8335   20.6634 C   0  0  0  0  0  0  0  0  0  0  0  0
  -10.0092  -21.5178   19.5068 C   0  0  0  0  0  0  0  0  0  0  0  0
   -9.4280  -20.7226   18.3462 N   0  0  0  0  0  0  0  0  0  0  0  0
   -9.8823  -20.3074   17.0927 C   0  0  0  0  0  0  0  0  0  0  0  0
  -11.0574  -19.9038   16.6319 N   0  0  0  0  0  0  0  0  0  0  0  0
  -10.9693  -19.3640   15.3019 C   0  0  0  0  0  0  0  0  0  0  0  0
  -12.0116  -18.8122   14.4968 C   0  0  0  0  0  0  0  0  0  0  0  0
  -11.7272  -18.1554   13.2736 C   0  0  0  0  0  0  0  0  0  0  0  0
  -10.4170  -18.0550   12.8173 C   0  0  0  0  0  0  0  0  0  0  0  0
   -9.3796  -18.6562   13.5445 C   0  0  0  0  0  0  0  0  0  0  0  0
   -9.6833  -19.3179   14.7678 C   0  0  0  0  0  0  0  0  0  0  0  0
   -8.6687  -20.2104   15.8349 S   0  0  0  0  0  0  0  0  0  0  0  0
   -7.6787  -22.2253   20.1271 C   0  0  0  0  0  0  0  0  0  0  0  0
   -5.6728  -22.9411   20.4678 H   0  0  0  0  0  0  0  0  0  0  0  0
   -6.0181  -23.0969   22.9174 H   0  0  0  0  0  0  0  0  0  0  0  0
  -11.3063  -20.5167   21.9689 H   0  0  0  0  0  0  0  0  0  0  0  0
  -13.8889  -23.1601   25.1236 H   0  0  0  0  0  0  0  0  0  0  0  0
  -12.9466  -25.3693   25.9529 H   0  0  0  0  0  0  0  0  0  0  0  0
  -10.5318  -25.6986   26.0779 H   0  0  0  0  0  0  0  0  0  0  0  0
   -9.1790  -24.2703   24.6236 H   0  0  0  0  0  0  0  0  0  0  0  0
  -10.8824  -21.0155   19.9141 H   0  0  0  0  0  0  0  0  0  0  0  0
  -10.3378  -22.4886   19.1176 H   0  0  0  0  0  0  0  0  0  0  0  0
   -8.4239  -20.6312   18.4341 H   0  0  0  0  0  0  0  0  0  0  0  0
  -13.0317  -18.8484   14.8682 H   0  0  0  0  0  0  0  0  0  0  0  0
  -12.5422  -17.7120   12.7055 H   0  0  0  0  0  0  0  0  0  0  0  0
  -10.2018  -17.5459   11.8816 H   0  0  0  0  0  0  0  0  0  0  0  0
   -8.3580  -18.6289   13.1767 H   0  0  0  0  0  0  0  0  0  0  0  0
   -7.5201  -22.2658   19.0516 H   0  0  0  0  0  0  0  0  0  0  0  0
  1  2  2  0
  2  3  1  0
  3  4  2  0
  4  5  1  0
  5  6  1  0
  6  7  2  0
  7  8  1  0
  8  9  2  0
  9 10  1  0
 10 11  2  0
 11 12  1  0
 12 13  2  0
  4 14  1  0
 14 15  1  0
 15 16  1  0
 16 17  1  0
 17 18  2  0
 18 19  1  0
 19 20  2  0
 20 21  1  0
 21 22  2  0
 22 23  1  0
 23 24  2  0
 24 25  1  0
 14 26  2  0
 26  1  1  0
 13  5  1  0
 25 17  1  0
 13  8  1  0
 24 19  1  0
  1 27  1  0
  2 28  1  0
  6 29  1  0
  9 30  1  0
 10 31  1  0
 11 32  1  0
 12 33  1  0
 15 34  1  0
 15 35  1  0
 16 36  1  0
 20 37  1  0
 21 38  1  0
 22 39  1  0
 23 40  1  0
 26 41  1  0
M  END
>  <Energy>  (612) 
103.78756700167388

>  <compound_id>  (612) 
32709

>  <target_id>  (612) 
1

>  <reference_id>  (612) 
69

>  <inspiration_ids>  (612) 
[69, 52]

>  <energy_score>  (612) 
-7.992078514315438

>  <distance_score>  (612) 
13.81581880219687

>  <path>  (612) 
/opt/xchem-fragalysis-2/maxwin/BulkDock/SCRATCH/511015/C32709-P69/C32709-P69.minimised.mol

>  <scratch_subdir>  (612) 
/opt/xchem-fragalysis-2/maxwin/BulkDock/SCRATCH/511015/C32709-P69

>  <fragmenstein_runtime>  (612) 
34.750828981399536

>  <fragmenstein_outcome>  (612) 
too moved

>  <fragmenstein_mode>  (612) 
expansion

>  <fragmenstein_error>  (612) 


$$$$
C32709-P52
     RDKit          3D

 41 45  0  0  0  0  0  0  0  0999 V2000
  -10.3100  -22.1479   17.2551 C   0  0  0  0  0  0  0  0  0  0  0  0
  -10.6942  -22.1350   18.5647 C   0  0  0  0  0  0  0  0  0  0  0  0
   -9.8660  -21.7383   19.5326 N   0  0  0  0  0  0  0  0  0  0  0  0
   -8.5648  -21.3712   19.2594 C   0  0  0  0  0  0  0  0  0  0  0  0
   -7.8266  -21.4411   20.5066 N   0  0  0  0  0  0  0  0  0  0  0  0
   -8.4865  -21.3280   21.7261 C   0  0  0  0  0  0  0  0  0  0  0  0
   -7.7978  -21.7499   22.7518 N   0  0  0  0  0  0  0  0  0  0  0  0
   -6.6485  -22.2161   22.2236 C   0  0  0  0  0  0  0  0  0  0  0  0
   -5.6177  -22.8764   22.9152 C   0  0  0  0  0  0  0  0  0  0  0  0
   -4.5231  -23.3299   22.2008 C   0  0  0  0  0  0  0  0  0  0  0  0
   -4.4735  -23.1288   20.8224 C   0  0  0  0  0  0  0  0  0  0  0  0
   -5.5002  -22.4742   20.1097 C   0  0  0  0  0  0  0  0  0  0  0  0
   -6.5932  -22.0023   20.8362 C   0  0  0  0  0  0  0  0  0  0  0  0
   -8.1511  -21.1330   17.9145 C   0  0  0  0  0  0  0  0  0  0  0  0
   -7.0045  -20.2263   17.2704 C   0  0  0  0  0  0  0  0  0  0  0  0
   -7.5584  -19.3068   16.1993 N   0  0  0  0  0  0  0  0  0  0  0  0
   -7.0696  -18.6284   15.0812 C   0  0  0  0  0  0  0  0  0  0  0  0
   -7.9247  -17.9832   14.3023 N   0  0  0  0  0  0  0  0  0  0  0  0
   -7.3606  -17.3292   13.2036 C   0  0  0  0  0  0  0  0  0  0  0  0
   -8.0281  -16.4949   12.2568 C   0  0  0  0  0  0  0  0  0  0  0  0
   -7.3130  -15.8427   11.2395 C   0  0  0  0  0  0  0  0  0  0  0  0
   -5.9420  -16.0468   11.1282 C   0  0  0  0  0  0  0  0  0  0  0  0
   -5.2631  -16.8932   12.0320 C   0  0  0  0  0  0  0  0  0  0  0  0
   -5.9858  -17.5060   13.0919 C   0  0  0  0  0  0  0  0  0  0  0  0
   -5.4553  -18.4690   14.4660 S   0  0  0  0  0  0  0  0  0  0  0  0
   -9.0536  -21.6322   16.9386 C   0  0  0  0  0  0  0  0  0  0  0  0
  -10.9830  -22.4934   16.4786 H   0  0  0  0  0  0  0  0  0  0  0  0
  -11.6761  -22.4658   18.8844 H   0  0  0  0  0  0  0  0  0  0  0  0
   -9.5141  -20.9976   21.7921 H   0  0  0  0  0  0  0  0  0  0  0  0
   -5.6997  -23.0565   23.9811 H   0  0  0  0  0  0  0  0  0  0  0  0
   -3.7177  -23.8509   22.7098 H   0  0  0  0  0  0  0  0  0  0  0  0
   -3.6150  -23.5057   20.2675 H   0  0  0  0  0  0  0  0  0  0  0  0
   -5.4430  -22.3772   19.0315 H   0  0  0  0  0  0  0  0  0  0  0  0
   -6.5545  -19.6203   18.0624 H   0  0  0  0  0  0  0  0  0  0  0  0
   -6.2494  -20.8894   16.8360 H   0  0  0  0  0  0  0  0  0  0  0  0
   -8.5452  -19.1066   16.3423 H   0  0  0  0  0  0  0  0  0  0  0  0
   -9.0992  -16.3455   12.3545 H   0  0  0  0  0  0  0  0  0  0  0  0
   -7.8320  -15.1910   10.5418 H   0  0  0  0  0  0  0  0  0  0  0  0
   -5.3824  -15.5500   10.3383 H   0  0  0  0  0  0  0  0  0  0  0  0
   -4.1886  -17.0316   11.9530 H   0  0  0  0  0  0  0  0  0  0  0  0
   -8.7963  -21.5591   15.8799 H   0  0  0  0  0  0  0  0  0  0  0  0
  1  2  2  0
  2  3  1  0
  3  4  2  0
  4  5  1  0
  5  6  1  0
  6  7  2  0
  7  8  1  0
  8  9  2  0
  9 10  1  0
 10 11  2  0
 11 12  1  0
 12 13  2  0
  4 14  1  0
 14 15  1  0
 15 16  1  0
 16 17  1  0
 17 18  2  0
 18 19  1  0
 19 20  2  0
 20 21  1  0
 21 22  2  0
 22 23  1  0
 23 24  2  0
 24 25  1  0
 14 26  2  0
 26  1  1  0
 13  5  1  0
 25 17  1  0
 13  8  1  0
 24 19  1  0
  1 27  1  0
  2 28  1  0
  6 29  1  0
  9 30  1  0
 10 31  1  0
 11 32  1  0
 12 33  1  0
 15 34  1  0
 15 35  1  0
 16 36  1  0
 20 37  1  0
 21 38  1  0
 22 39  1  0
 23 40  1  0
 26 41  1  0
M  END
>  <Energy>  (613) 
89.006250249140095

>  <compound_id>  (613) 
32709

>  <target_id>  (613) 
1

>  <reference_id>  (613) 
52

>  <inspiration_ids>  (613) 
[69, 52]

>  <energy_score>  (613) 
-22.77339526684841

>  <distance_score>  (613) 
13.73248175856403

>  <path>  (613) 
/opt/xchem-fragalysis-2/maxwin/BulkDock/SCRATCH/511015/C32709-P52/C32709-P52.minimised.mol

>  <scratch_subdir>  (613) 
/opt/xchem-fragalysis-2/maxwin/BulkDock/SCRATCH/511015/C32709-P52

>  <fragmenstein_runtime>  (613) 
28.18707251548767

>  <fragmenstein_outcome>  (613) 
too moved

>  <fragmenstein_mode>  (613) 
expansion

>  <fragmenstein_error>  (613) 


$$$$
C32710-P69
     RDKit          3D

 45 48  0  0  0  0  0  0  0  0999 V2000
   -6.1477  -18.7988   20.1172 C   0  0  0  0  0  0  0  0  0  0  0  0
   -7.3499  -18.6925   21.0570 C   0  0  0  0  0  0  0  0  0  0  0  0
   -7.7632  -16.7226   21.3333 C   0  0  0  0  0  0  0  0  0  0  0  0
   -7.5806  -16.3732   22.4352 O   0  0  0  0  0  0  0  0  0  0  0  0
   -8.3358  -15.7102   19.7231 N   0  0  0  0  0  0  0  0  0  0  0  0
   -8.6364  -13.7616   19.4080 C   0  0  0  0  0  0  0  0  0  0  0  0
   -8.1420  -12.6071   17.7362 C   0  0  0  0  0  0  0  0  0  0  0  0
   -8.6581  -12.0392   15.8904 N   0  0  0  0  0  0  0  0  0  0  0  0
   -8.4873  -11.1577   14.5291 C   0  0  0  0  0  0  0  0  0  0  0  0
   -7.8603  -10.0241   14.1825 N   0  0  0  0  0  0  0  0  0  0  0  0
   -7.4282  -10.0027   12.7893 C   0  0  0  0  0  0  0  0  0  0  0  0
   -6.3625   -9.3349   12.1241 C   0  0  0  0  0  0  0  0  0  0  0  0
   -6.2099   -9.3406   10.7317 C   0  0  0  0  0  0  0  0  0  0  0  0
   -7.1134  -10.0297    9.9550 C   0  0  0  0  0  0  0  0  0  0  0  0
   -8.0939  -10.8105   10.5649 C   0  0  0  0  0  0  0  0  0  0  0  0
   -8.1449  -10.8408   11.9740 C   0  0  0  0  0  0  0  0  0  0  0  0
   -8.7927  -12.0067   12.9979 S   0  0  0  0  0  0  0  0  0  0  0  0
   -8.2682  -20.3809   20.8149 N   0  0  0  0  0  0  0  0  0  0  0  0
   -9.0661  -20.6764   19.6686 C   0  0  0  0  0  0  0  0  0  0  0  0
   -9.8323  -21.8303   19.8376 N   0  0  0  0  0  0  0  0  0  0  0  0
  -10.1012  -22.1775   21.0762 C   0  0  0  0  0  0  0  0  0  0  0  0
  -10.9084  -23.2159   21.5842 C   0  0  0  0  0  0  0  0  0  0  0  0
  -11.4148  -23.1154   22.8733 C   0  0  0  0  0  0  0  0  0  0  0  0
  -11.2215  -21.9273   23.5333 C   0  0  0  0  0  0  0  0  0  0  0  0
  -10.3749  -20.9403   22.9738 C   0  0  0  0  0  0  0  0  0  0  0  0
   -9.5594  -21.1649   21.8205 C   0  0  0  0  0  0  0  0  0  0  0  0
   -5.5604  -17.8795   20.1538 H   0  0  0  0  0  0  0  0  0  0  0  0
   -6.4614  -18.9318   19.0853 H   0  0  0  0  0  0  0  0  0  0  0  0
   -5.4870  -19.6257   20.3836 H   0  0  0  0  0  0  0  0  0  0  0  0
   -7.0388  -18.9916   22.0752 H   0  0  0  0  0  0  0  0  0  0  0  0
   -8.3224  -16.2700   18.8836 H   0  0  0  0  0  0  0  0  0  0  0  0
   -7.9869  -13.2765   20.0758 H   0  0  0  0  0  0  0  0  0  0  0  0
   -9.6862  -13.5559   19.4960 H   0  0  0  0  0  0  0  0  0  0  0  0
   -7.4860  -11.8433   18.1450 H   0  0  0  0  0  0  0  0  0  0  0  0
   -7.4961  -13.3688   17.3222 H   0  0  0  0  0  0  0  0  0  0  0  0
   -9.6668  -12.1650   15.6397 H   0  0  0  0  0  0  0  0  0  0  0  0
   -5.5800   -8.8390   12.6704 H   0  0  0  0  0  0  0  0  0  0  0  0
   -5.3776   -8.8137   10.2747 H   0  0  0  0  0  0  0  0  0  0  0  0
   -6.9864  -10.0454    8.8802 H   0  0  0  0  0  0  0  0  0  0  0  0
   -8.7105  -11.4800    9.9729 H   0  0  0  0  0  0  0  0  0  0  0  0
   -8.7918  -20.2870   18.6998 H   0  0  0  0  0  0  0  0  0  0  0  0
  -11.2212  -24.0188   20.9264 H   0  0  0  0  0  0  0  0  0  0  0  0
  -12.0769  -23.8761   23.2723 H   0  0  0  0  0  0  0  0  0  0  0  0
  -11.7526  -21.7209   24.4612 H   0  0  0  0  0  0  0  0  0  0  0  0
  -10.3771  -20.0106   23.5024 H   0  0  0  0  0  0  0  0  0  0  0  0
  1  2  1  0
  2  3  1  0
  3  4  2  0
  3  5  1  0
  5  6  1  0
  6  7  1  0
  7  8  1  0
  8  9  1  0
  9 10  2  0
 10 11  1  0
 11 12  2  0
 12 13  1  0
 13 14  2  0
 14 15  1  0
 15 16  2  0
 16 17  1  0
  2 18  1  0
 18 19  1  0
 19 20  2  0
 20 21  1  0
 21 22  2  0
 22 23  1  0
 23 24  2  0
 24 25  1  0
 25 26  2  0
 17  9  1  0
 26 18  1  0
 16 11  1  0
 26 21  1  0
  1 27  1  0
  1 28  1  0
  1 29  1  0
  2 30  1  0
  5 31  1  0
  6 32  1  0
  6 33  1  0
  7 34  1  0
  7 35  1  0
  8 36  1  0
 12 37  1  0
 13 38  1  0
 14 39  1  0
 15 40  1  0
 19 41  1  0
 22 42  1  0
 23 43  1  0
 24 44  1  0
 25 45  1  0
M  END
>  <Energy>  (614) 
762.9508037389445

>  <compound_id>  (614) 
32710

>  <target_id>  (614) 
1

>  <reference_id>  (614) 
69

>  <inspiration_ids>  (614) 
[69, 52]

>  <energy_score>  (614) 
676.460793616229

>  <distance_score>  (614) 
11.07534646650469

>  <path>  (614) 
/opt/xchem-fragalysis-2/maxwin/BulkDock/SCRATCH/511015/C32710-P69/C32710-P69.minimised.mol

>  <scratch_subdir>  (614) 
/opt/xchem-fragalysis-2/maxwin/BulkDock/SCRATCH/511015/C32710-P69

>  <fragmenstein_runtime>  (614) 
35.1401584148407

>  <fragmenstein_outcome>  (614) 
too moved

>  <fragmenstein_mode>  (614) 
expansion

>  <fragmenstein_error>  (614) 


$$$$
C32710-P52
     RDKit          3D

 45 48  0  0  0  0  0  0  0  0999 V2000
   -6.7393  -18.7064   22.3702 C   0  0  0  0  0  0  0  0  0  0  0  0
   -7.8004  -18.8197   21.3981 C   0  0  0  0  0  0  0  0  0  0  0  0
   -8.1195  -16.8223   20.9059 C   0  0  0  0  0  0  0  0  0  0  0  0
   -7.9538  -16.1725   21.8536 O   0  0  0  0  0  0  0  0  0  0  0  0
   -8.6590  -15.8880   19.2341 N   0  0  0  0  0  0  0  0  0  0  0  0
   -8.8507  -13.9258   18.7723 C   0  0  0  0  0  0  0  0  0  0  0  0
   -8.3424  -12.7603   17.1186 C   0  0  0  0  0  0  0  0  0  0  0  0
   -7.4794  -11.2393   16.1882 N   0  0  0  0  0  0  0  0  0  0  0  0
   -7.5307  -10.3807   14.5751 C   0  0  0  0  0  0  0  0  0  0  0  0
   -8.7120  -10.3902   13.6722 N   0  0  0  0  0  0  0  0  0  0  0  0
   -8.8853  -10.6117   12.2877 C   0  0  0  0  0  0  0  0  0  0  0  0
  -10.0705  -10.9863   11.6298 C   0  0  0  0  0  0  0  0  0  0  0  0
  -10.0579  -11.1791   10.2365 C   0  0  0  0  0  0  0  0  0  0  0  0
   -8.9116  -10.9161    9.4925 C   0  0  0  0  0  0  0  0  0  0  0  0
   -7.7314  -10.5551   10.1354 C   0  0  0  0  0  0  0  0  0  0  0  0
   -7.7607  -10.5254   11.5403 C   0  0  0  0  0  0  0  0  0  0  0  0
   -6.4702  -10.7551   12.5674 S   0  0  0  0  0  0  0  0  0  0  0  0
   -8.8696  -20.3546   22.2582 N   0  0  0  0  0  0  0  0  0  0  0  0
   -9.4997  -21.4122   21.1644 C   0  0  0  0  0  0  0  0  0  0  0  0
   -9.5611  -22.6246   21.6514 N   0  0  0  0  0  0  0  0  0  0  0  0
   -9.7258  -22.4113   22.9680 C   0  0  0  0  0  0  0  0  0  0  0  0
  -10.0089  -23.4028   23.9331 C   0  0  0  0  0  0  0  0  0  0  0  0
  -10.7158  -23.0585   25.0706 C   0  0  0  0  0  0  0  0  0  0  0  0
  -11.2274  -21.7805   25.1333 C   0  0  0  0  0  0  0  0  0  0  0  0
  -10.9017  -20.7910   24.1671 C   0  0  0  0  0  0  0  0  0  0  0  0
   -9.9064  -21.0222   23.1926 C   0  0  0  0  0  0  0  0  0  0  0  0
   -6.3261  -19.6779   22.5835 H   0  0  0  0  0  0  0  0  0  0  0  0
   -7.0149  -18.2919   23.2927 H   0  0  0  0  0  0  0  0  0  0  0  0
   -6.0932  -17.9462   21.9490 H   0  0  0  0  0  0  0  0  0  0  0  0
   -7.4681  -19.3660   20.4949 H   0  0  0  0  0  0  0  0  0  0  0  0
   -8.6750  -16.5300   18.4904 H   0  0  0  0  0  0  0  0  0  0  0  0
   -9.8857  -13.6574   18.8224 H   0  0  0  0  0  0  0  0  0  0  0  0
   -8.1045  -13.4143   19.2930 H   0  0  0  0  0  0  0  0  0  0  0  0
   -9.2747  -12.7184   16.6329 H   0  0  0  0  0  0  0  0  0  0  0  0
   -8.3920  -11.9890   17.8724 H   0  0  0  0  0  0  0  0  0  0  0  0
   -8.0384  -10.5716   16.6864 H   0  0  0  0  0  0  0  0  0  0  0  0
  -10.9778  -11.1416   12.2032 H   0  0  0  0  0  0  0  0  0  0  0  0
  -10.9702  -11.4842    9.7304 H   0  0  0  0  0  0  0  0  0  0  0  0
   -8.9271  -11.0259    8.4114 H   0  0  0  0  0  0  0  0  0  0  0  0
   -6.8001  -10.4625    9.5840 H   0  0  0  0  0  0  0  0  0  0  0  0
   -9.5488  -21.0858   20.1374 H   0  0  0  0  0  0  0  0  0  0  0  0
   -9.7932  -24.4405   23.7045 H   0  0  0  0  0  0  0  0  0  0  0  0
  -10.9892  -23.8049   25.8074 H   0  0  0  0  0  0  0  0  0  0  0  0
  -11.9075  -21.5268   25.9395 H   0  0  0  0  0  0  0  0  0  0  0  0
  -11.4528  -19.8863   24.2514 H   0  0  0  0  0  0  0  0  0  0  0  0
  1  2  1  0
  2  3  1  0
  3  4  2  0
  3  5  1  0
  5  6  1  0
  6  7  1  0
  7  8  1  0
  8  9  1  0
  9 10  2  0
 10 11  1  0
 11 12  2  0
 12 13  1  0
 13 14  2  0
 14 15  1  0
 15 16  2  0
 16 17  1  0
  2 18  1  0
 18 19  1  0
 19 20  2  0
 20 21  1  0
 21 22  2  0
 22 23  1  0
 23 24  2  0
 24 25  1  0
 25 26  2  0
 17  9  1  0
 26 18  1  0
 16 11  1  0
 26 21  1  0
  1 27  1  0
  1 28  1  0
  1 29  1  0
  2 30  1  0
  5 31  1  0
  6 32  1  0
  6 33  1  0
  7 34  1  0
  7 35  1  0
  8 36  1  0
 12 37  1  0
 13 38  1  0
 14 39  1  0
 15 40  1  0
 19 41  1  0
 22 42  1  0
 23 43  1  0
 24 44  1  0
 25 45  1  0
M  END
>  <Energy>  (615) 
1026.8429665465696

>  <compound_id>  (615) 
32710

>  <target_id>  (615) 
1

>  <reference_id>  (615) 
52

>  <inspiration_ids>  (615) 
[69, 52]

>  <energy_score>  (615) 
940.3529564238679

>  <distance_score>  (615) 
10.312516125732856

>  <path>  (615) 
/opt/xchem-fragalysis-2/maxwin/BulkDock/SCRATCH/511015/C32710-P52/C32710-P52.minimised.mol

>  <scratch_subdir>  (615) 
/opt/xchem-fragalysis-2/maxwin/BulkDock/SCRATCH/511015/C32710-P52

>  <fragmenstein_runtime>  (615) 
26.19311547279358

>  <fragmenstein_outcome>  (615) 
too moved

>  <fragmenstein_mode>  (615) 
expansion

>  <fragmenstein_error>  (615) 


$$$$
C32711-P69
     RDKit          3D

 30 33  0  0  0  0  0  0  0  0999 V2000
   -2.2450   -8.8255   16.9385 C   0  0  0  0  0  0  0  0  0  0  0  0
   -2.3693   -7.6179   17.6162 C   0  0  0  0  0  0  0  0  0  0  0  0
   -2.4414   -7.5998   19.0183 C   0  0  0  0  0  0  0  0  0  0  0  0
   -2.4276   -8.8281   19.7318 C   0  0  0  0  0  0  0  0  0  0  0  0
   -2.5273   -9.1377   21.4461 S   0  0  0  0  0  0  0  0  0  0  0  0
   -2.5968  -10.8655   21.2149 C   0  0  0  0  0  0  0  0  0  0  0  0
   -2.4612  -11.8940   22.4453 C   0  0  0  0  0  0  0  0  0  0  0  0
   -3.5407  -12.2196   23.4558 N   0  0  0  0  0  0  0  0  0  0  0  0
   -4.5051  -11.3652   23.9269 C   0  0  0  0  0  0  0  0  0  0  0  0
   -5.2375  -11.8847   24.8904 N   0  0  0  0  0  0  0  0  0  0  0  0
   -4.7553  -13.1513   25.0953 C   0  0  0  0  0  0  0  0  0  0  0  0
   -5.2021  -14.1388   26.0063 C   0  0  0  0  0  0  0  0  0  0  0  0
   -4.5573  -15.3762   26.0577 C   0  0  0  0  0  0  0  0  0  0  0  0
   -3.4769  -15.6163   25.2131 C   0  0  0  0  0  0  0  0  0  0  0  0
   -3.0145  -14.6401   24.2977 C   0  0  0  0  0  0  0  0  0  0  0  0
   -3.6742  -13.3958   24.2397 C   0  0  0  0  0  0  0  0  0  0  0  0
   -2.4523  -11.1848   19.9254 N   0  0  0  0  0  0  0  0  0  0  0  0
   -2.3356  -10.0547   19.0764 C   0  0  0  0  0  0  0  0  0  0  0  0
   -2.2101  -10.0389   17.6555 C   0  0  0  0  0  0  0  0  0  0  0  0
   -2.1796   -8.8418   15.8533 H   0  0  0  0  0  0  0  0  0  0  0  0
   -2.3965   -6.6824   17.0625 H   0  0  0  0  0  0  0  0  0  0  0  0
   -2.5255   -6.6577   19.5528 H   0  0  0  0  0  0  0  0  0  0  0  0
   -1.6182  -11.5570   23.0623 H   0  0  0  0  0  0  0  0  0  0  0  0
   -2.1886  -12.8623   22.0086 H   0  0  0  0  0  0  0  0  0  0  0  0
   -4.6212  -10.3612   23.5455 H   0  0  0  0  0  0  0  0  0  0  0  0
   -6.0432  -13.9202   26.6544 H   0  0  0  0  0  0  0  0  0  0  0  0
   -4.8966  -16.1418   26.7484 H   0  0  0  0  0  0  0  0  0  0  0  0
   -2.9798  -16.5840   25.2440 H   0  0  0  0  0  0  0  0  0  0  0  0
   -2.1838  -14.8681   23.6372 H   0  0  0  0  0  0  0  0  0  0  0  0
   -2.1417  -10.9855   17.1271 H   0  0  0  0  0  0  0  0  0  0  0  0
  1  2  2  0
  2  3  1  0
  3  4  2  0
  4  5  1  0
  5  6  1  0
  6  7  1  0
  7  8  1  0
  8  9  1  0
  9 10  2  0
 10 11  1  0
 11 12  2  0
 12 13  1  0
 13 14  2  0
 14 15  1  0
 15 16  2  0
  6 17  2  0
 17 18  1  0
 18 19  2  0
 19  1  1  0
 18  4  1  0
 16  8  1  0
 16 11  1  0
  1 20  1  0
  2 21  1  0
  3 22  1  0
  7 23  1  0
  7 24  1  0
  9 25  1  0
 12 26  1  0
 13 27  1  0
 14 28  1  0
 15 29  1  0
 19 30  1  0
M  END
>  <Energy>  (616) 
59.840176970270129

>  <compound_id>  (616) 
32711

>  <target_id>  (616) 
1

>  <reference_id>  (616) 
69

>  <inspiration_ids>  (616) 
[69, 52]

>  <energy_score>  (616) 
-10.430400644929875

>  <distance_score>  (616) 
14.571842548302895

>  <path>  (616) 
/opt/xchem-fragalysis-2/maxwin/BulkDock/SCRATCH/511015/C32711-P69/C32711-P69.minimised.mol

>  <scratch_subdir>  (616) 
/opt/xchem-fragalysis-2/maxwin/BulkDock/SCRATCH/511015/C32711-P69

>  <fragmenstein_runtime>  (616) 
16.645193099975586

>  <fragmenstein_outcome>  (616) 
too moved

>  <fragmenstein_mode>  (616) 
expansion

>  <fragmenstein_error>  (616) 


$$$$
C32711-P52
     RDKit          3D

 30 33  0  0  0  0  0  0  0  0999 V2000
   -3.9333  -11.1467   12.9988 C   0  0  0  0  0  0  0  0  0  0  0  0
   -4.2862  -11.8116   11.8323 C   0  0  0  0  0  0  0  0  0  0  0  0
   -4.4098  -13.2117   11.8255 C   0  0  0  0  0  0  0  0  0  0  0  0
   -4.1985  -13.9378   13.0273 C   0  0  0  0  0  0  0  0  0  0  0  0
   -4.3873  -15.6403   13.3783 S   0  0  0  0  0  0  0  0  0  0  0  0
   -4.0064  -15.4205   15.0730 C   0  0  0  0  0  0  0  0  0  0  0  0
   -3.7190  -16.6815   16.0624 C   0  0  0  0  0  0  0  0  0  0  0  0
   -4.7313  -17.3207   17.0010 N   0  0  0  0  0  0  0  0  0  0  0  0
   -5.9293  -17.8626   16.5794 C   0  0  0  0  0  0  0  0  0  0  0  0
   -6.5563  -18.5409   17.5169 N   0  0  0  0  0  0  0  0  0  0  0  0
   -5.7438  -18.5138   18.6175 C   0  0  0  0  0  0  0  0  0  0  0  0
   -5.9568  -19.1004   19.8895 C   0  0  0  0  0  0  0  0  0  0  0  0
   -4.9908  -18.9652   20.8864 C   0  0  0  0  0  0  0  0  0  0  0  0
   -3.8170  -18.2717   20.6038 C   0  0  0  0  0  0  0  0  0  0  0  0
   -3.5769  -17.6922   19.3317 C   0  0  0  0  0  0  0  0  0  0  0  0
   -4.5689  -17.7995   18.3318 C   0  0  0  0  0  0  0  0  0  0  0  0
   -3.6908  -14.1475   15.3188 N   0  0  0  0  0  0  0  0  0  0  0  0
   -3.8356  -13.2927   14.2061 C   0  0  0  0  0  0  0  0  0  0  0  0
   -3.6944  -11.8769   14.1769 C   0  0  0  0  0  0  0  0  0  0  0  0
   -3.8384  -10.0640   13.0052 H   0  0  0  0  0  0  0  0  0  0  0  0
   -4.4711  -11.2506   10.9181 H   0  0  0  0  0  0  0  0  0  0  0  0
   -4.7032  -13.7310   10.9171 H   0  0  0  0  0  0  0  0  0  0  0  0
   -2.8782  -16.3951   16.7052 H   0  0  0  0  0  0  0  0  0  0  0  0
   -3.3810  -17.5185   15.4372 H   0  0  0  0  0  0  0  0  0  0  0  0
   -6.2947  -17.7229   15.5699 H   0  0  0  0  0  0  0  0  0  0  0  0
   -6.8752  -19.6468   20.0740 H   0  0  0  0  0  0  0  0  0  0  0  0
   -5.1532  -19.4001   21.8679 H   0  0  0  0  0  0  0  0  0  0  0  0
   -3.0609  -18.1694   21.3801 H   0  0  0  0  0  0  0  0  0  0  0  0
   -2.6550  -17.1494   19.1475 H   0  0  0  0  0  0  0  0  0  0  0  0
   -3.4245  -11.3607   15.0936 H   0  0  0  0  0  0  0  0  0  0  0  0
  1  2  2  0
  2  3  1  0
  3  4  2  0
  4  5  1  0
  5  6  1  0
  6  7  1  0
  7  8  1  0
  8  9  1  0
  9 10  2  0
 10 11  1  0
 11 12  2  0
 12 13  1  0
 13 14  2  0
 14 15  1  0
 15 16  2  0
  6 17  2  0
 17 18  1  0
 18 19  2  0
 19  1  1  0
 18  4  1  0
 16  8  1  0
 16 11  1  0
  1 20  1  0
  2 21  1  0
  3 22  1  0
  7 23  1  0
  7 24  1  0
  9 25  1  0
 12 26  1  0
 13 27  1  0
 14 28  1  0
 15 29  1  0
 19 30  1  0
M  END
>  <Energy>  (617) 
63.032072209490515

>  <compound_id>  (617) 
32711

>  <target_id>  (617) 
1

>  <reference_id>  (617) 
52

>  <inspiration_ids>  (617) 
[69, 52]

>  <energy_score>  (617) 
-7.238505405706746

>  <distance_score>  (617) 
14.859327573239975

>  <path>  (617) 
/opt/xchem-fragalysis-2/maxwin/BulkDock/SCRATCH/511015/C32711-P52/C32711-P52.minimised.mol

>  <scratch_subdir>  (617) 
/opt/xchem-fragalysis-2/maxwin/BulkDock/SCRATCH/511015/C32711-P52

>  <fragmenstein_runtime>  (617) 
15.840977668762207

>  <fragmenstein_outcome>  (617) 
too moved

>  <fragmenstein_mode>  (617) 
expansion

>  <fragmenstein_error>  (617) 


$$$$
C32706-P69
     RDKit          3D

 33 36  0  0  0  0  0  0  0  0999 V2000
   -2.3412   -8.0516   16.8254 C   0  0  0  0  0  0  0  0  0  0  0  0
   -1.7814   -9.4368   16.6923 C   0  0  0  0  0  0  0  0  0  0  0  0
   -1.2344   -9.8687   15.4855 C   0  0  0  0  0  0  0  0  0  0  0  0
   -0.7399  -11.1776   15.3577 C   0  0  0  0  0  0  0  0  0  0  0  0
   -0.8445  -12.0741   16.4559 C   0  0  0  0  0  0  0  0  0  0  0  0
   -0.4514  -13.7639   16.5672 S   0  0  0  0  0  0  0  0  0  0  0  0
   -1.0197  -13.8738   18.2355 C   0  0  0  0  0  0  0  0  0  0  0  0
   -1.0295  -15.3396   18.9485 C   0  0  0  0  0  0  0  0  0  0  0  0
   -1.5411  -15.6355   20.3513 N   0  0  0  0  0  0  0  0  0  0  0  0
   -1.0267  -15.0338   21.4747 C   0  0  0  0  0  0  0  0  0  0  0  0
   -1.5098  -15.5216   22.5999 N   0  0  0  0  0  0  0  0  0  0  0  0
   -2.2942  -16.5819   22.2485 C   0  0  0  0  0  0  0  0  0  0  0  0
   -3.0130  -17.4587   23.0935 C   0  0  0  0  0  0  0  0  0  0  0  0
   -3.7617  -18.4900   22.5318 C   0  0  0  0  0  0  0  0  0  0  0  0
   -3.7811  -18.6366   21.1472 C   0  0  0  0  0  0  0  0  0  0  0  0
   -3.0671  -17.7645   20.2859 C   0  0  0  0  0  0  0  0  0  0  0  0
   -2.3253  -16.7090   20.8499 C   0  0  0  0  0  0  0  0  0  0  0  0
   -1.4018  -12.6834   18.6834 N   0  0  0  0  0  0  0  0  0  0  0  0
   -1.3758  -11.6764   17.6785 C   0  0  0  0  0  0  0  0  0  0  0  0
   -1.8414  -10.3360   17.7826 C   0  0  0  0  0  0  0  0  0  0  0  0
   -3.3619   -8.0218   16.4317 H   0  0  0  0  0  0  0  0  0  0  0  0
   -1.7258   -7.3315   16.2762 H   0  0  0  0  0  0  0  0  0  0  0  0
   -2.3603   -7.7323   17.8727 H   0  0  0  0  0  0  0  0  0  0  0  0
   -1.1859   -9.1984   14.6300 H   0  0  0  0  0  0  0  0  0  0  0  0
   -0.3269  -11.5183   14.4123 H   0  0  0  0  0  0  0  0  0  0  0  0
    0.0150  -15.6771   18.9810 H   0  0  0  0  0  0  0  0  0  0  0  0
   -1.5867  -16.0218   18.2958 H   0  0  0  0  0  0  0  0  0  0  0  0
   -0.3134  -14.2212   21.4028 H   0  0  0  0  0  0  0  0  0  0  0  0
   -2.9796  -17.3125   24.1675 H   0  0  0  0  0  0  0  0  0  0  0  0
   -4.3274  -19.1639   23.1671 H   0  0  0  0  0  0  0  0  0  0  0  0
   -4.3704  -19.4391   20.7064 H   0  0  0  0  0  0  0  0  0  0  0  0
   -3.1232  -17.9002   19.2100 H   0  0  0  0  0  0  0  0  0  0  0  0
   -2.2637  -10.0236   18.7354 H   0  0  0  0  0  0  0  0  0  0  0  0
  1  2  1  0
  2  3  2  0
  3  4  1  0
  4  5  2  0
  5  6  1  0
  6  7  1  0
  7  8  1  0
  8  9  1  0
  9 10  1  0
 10 11  2  0
 11 12  1  0
 12 13  2  0
 13 14  1  0
 14 15  2  0
 15 16  1  0
 16 17  2  0
  7 18  2  0
 18 19  1  0
 19 20  2  0
 20  2  1  0
 19  5  1  0
 17  9  1  0
 17 12  1  0
  1 21  1  0
  1 22  1  0
  1 23  1  0
  3 24  1  0
  4 25  1  0
  8 26  1  0
  8 27  1  0
 10 28  1  0
 13 29  1  0
 14 30  1  0
 15 31  1  0
 16 32  1  0
 20 33  1  0
M  END
>  <Energy>  (618) 
64.993364001446835

>  <compound_id>  (618) 
32706

>  <target_id>  (618) 
1

>  <reference_id>  (618) 
69

>  <inspiration_ids>  (618) 
[69, 52]

>  <energy_score>  (618) 
-36.15566365193058

>  <distance_score>  (618) 
15.20278555388913

>  <path>  (618) 
/opt/xchem-fragalysis-2/maxwin/BulkDock/SCRATCH/511015/C32706-P69/C32706-P69.minimised.mol

>  <scratch_subdir>  (618) 
/opt/xchem-fragalysis-2/maxwin/BulkDock/SCRATCH/511015/C32706-P69

>  <fragmenstein_runtime>  (618) 
18.707576990127563

>  <fragmenstein_outcome>  (618) 
too moved

>  <fragmenstein_mode>  (618) 
expansion

>  <fragmenstein_error>  (618) 


$$$$
C32706-P52
     RDKit          3D

 33 36  0  0  0  0  0  0  0  0999 V2000
  -15.3691   -7.8607   15.3840 C   0  0  0  0  0  0  0  0  0  0  0  0
  -14.5229   -9.0826   15.1787 C   0  0  0  0  0  0  0  0  0  0  0  0
  -14.3320   -9.6153   13.9073 C   0  0  0  0  0  0  0  0  0  0  0  0
  -13.5913  -10.7892   13.7436 C   0  0  0  0  0  0  0  0  0  0  0  0
  -12.9835  -11.3872   14.8757 C   0  0  0  0  0  0  0  0  0  0  0  0
  -12.0253  -12.7829   14.9217 S   0  0  0  0  0  0  0  0  0  0  0  0
  -11.1955  -12.3401   16.9659 C   0  0  0  0  0  0  0  0  0  0  0  0
  -10.3740  -13.5834   18.2886 C   0  0  0  0  0  0  0  0  0  0  0  0
  -10.8287  -15.4019   18.8193 N   0  0  0  0  0  0  0  0  0  0  0  0
  -12.4453  -16.3497   19.0565 C   0  0  0  0  0  0  0  0  0  0  0  0
  -12.4909  -17.5537   18.5382 N   0  0  0  0  0  0  0  0  0  0  0  0
  -11.1820  -17.8054   18.6118 C   0  0  0  0  0  0  0  0  0  0  0  0
  -10.4043  -19.5354   18.2524 C   0  0  0  0  0  0  0  0  0  0  0  0
   -8.9650  -20.1248   19.3627 C   0  0  0  0  0  0  0  0  0  0  0  0
   -7.9913  -18.9527   20.4671 C   0  0  0  0  0  0  0  0  0  0  0  0
   -8.6005  -17.1901   20.8733 C   0  0  0  0  0  0  0  0  0  0  0  0
  -10.0461  -16.4718   19.6236 C   0  0  0  0  0  0  0  0  0  0  0  0
  -12.0959  -11.3218   17.1179 N   0  0  0  0  0  0  0  0  0  0  0  0
  -13.0904  -10.8671   16.1441 C   0  0  0  0  0  0  0  0  0  0  0  0
  -13.9340   -9.7212   16.2952 C   0  0  0  0  0  0  0  0  0  0  0  0
  -15.5569   -7.3421   14.4384 H   0  0  0  0  0  0  0  0  0  0  0  0
  -14.8667   -7.1564   16.0547 H   0  0  0  0  0  0  0  0  0  0  0  0
  -16.3332   -8.1431   15.8182 H   0  0  0  0  0  0  0  0  0  0  0  0
  -14.7851   -9.1462   13.0370 H   0  0  0  0  0  0  0  0  0  0  0  0
  -13.4638  -11.2282   12.7581 H   0  0  0  0  0  0  0  0  0  0  0  0
   -9.2629  -13.6282   18.1704 H   0  0  0  0  0  0  0  0  0  0  0  0
  -10.2783  -13.1373   19.2556 H   0  0  0  0  0  0  0  0  0  0  0  0
  -13.0815  -16.0328   19.9240 H   0  0  0  0  0  0  0  0  0  0  0  0
  -11.0648  -20.2539   17.7678 H   0  0  0  0  0  0  0  0  0  0  0  0
   -8.6101  -21.1471   19.2365 H   0  0  0  0  0  0  0  0  0  0  0  0
   -7.0797  -19.3052   20.9486 H   0  0  0  0  0  0  0  0  0  0  0  0
   -7.8194  -16.4822   21.1280 H   0  0  0  0  0  0  0  0  0  0  0  0
  -14.0166   -9.2683   17.2786 H   0  0  0  0  0  0  0  0  0  0  0  0
  1  2  1  0
  2  3  2  0
  3  4  1  0
  4  5  2  0
  5  6  1  0
  6  7  1  0
  7  8  1  0
  8  9  1  0
  9 10  1  0
 10 11  2  0
 11 12  1  0
 12 13  2  0
 13 14  1  0
 14 15  2  0
 15 16  1  0
 16 17  2  0
  7 18  2  0
 18 19  1  0
 19 20  2  0
 20  2  1  0
 19  5  1  0
 17  9  1  0
 17 12  1  0
  1 21  1  0
  1 22  1  0
  1 23  1  0
  3 24  1  0
  4 25  1  0
  8 26  1  0
  8 27  1  0
 10 28  1  0
 13 29  1  0
 14 30  1  0
 15 31  1  0
 16 32  1  0
 20 33  1  0
M  END
>  <Energy>  (619) 
956.50064150618027

>  <compound_id>  (619) 
32706

>  <target_id>  (619) 
1

>  <reference_id>  (619) 
52

>  <inspiration_ids>  (619) 
[69, 52]

>  <energy_score>  (619) 
855.3516138528066

>  <distance_score>  (619) 
14.144557463389098

>  <path>  (619) 
/opt/xchem-fragalysis-2/maxwin/BulkDock/SCRATCH/511015/C32706-P52/C32706-P52.minimised.mol

>  <scratch_subdir>  (619) 
/opt/xchem-fragalysis-2/maxwin/BulkDock/SCRATCH/511015/C32706-P52

>  <fragmenstein_runtime>  (619) 
16.12727451324463

>  <fragmenstein_outcome>  (619) 
too moved

>  <fragmenstein_mode>  (619) 
expansion

>  <fragmenstein_error>  (619) 


$$$$
C32712-P69
     RDKit          3D

 35 38  0  0  0  0  0  0  0  0999 V2000
   -9.2432  -10.2912   11.5194 C   0  0  0  0  0  0  0  0  0  0  0  0
   -8.0709  -10.3596   10.7889 C   0  0  0  0  0  0  0  0  0  0  0  0
   -6.8526  -10.3332   11.4576 C   0  0  0  0  0  0  0  0  0  0  0  0
   -6.8707  -10.2676   12.8681 C   0  0  0  0  0  0  0  0  0  0  0  0
   -5.5809  -10.4932   13.9021 S   0  0  0  0  0  0  0  0  0  0  0  0
   -6.6354  -10.2502   16.0619 C   0  0  0  0  0  0  0  0  0  0  0  0
   -7.2707  -11.4221   17.4411 N   0  0  0  0  0  0  0  0  0  0  0  0
   -7.8946  -13.1930   18.1153 C   0  0  0  0  0  0  0  0  0  0  0  0
   -7.9682  -15.3744   18.2602 C   0  0  0  0  0  0  0  0  0  0  0  0
   -6.9456  -16.9559   19.0051 N   0  0  0  0  0  0  0  0  0  0  0  0
   -5.4206  -17.2594   18.6246 C   0  0  0  0  0  0  0  0  0  0  0  0
   -4.9902  -18.4582   18.9112 N   0  0  0  0  0  0  0  0  0  0  0  0
   -5.6359  -18.7779   20.0257 C   0  0  0  0  0  0  0  0  0  0  0  0
   -5.3187  -19.8828   20.8534 C   0  0  0  0  0  0  0  0  0  0  0  0
   -5.7457  -19.9207   22.1637 C   0  0  0  0  0  0  0  0  0  0  0  0
   -6.4757  -18.8495   22.6171 C   0  0  0  0  0  0  0  0  0  0  0  0
   -6.8958  -17.7961   21.7531 C   0  0  0  0  0  0  0  0  0  0  0  0
   -6.5147  -17.7414   20.3880 C   0  0  0  0  0  0  0  0  0  0  0  0
   -7.7994   -9.8811   15.0139 N   0  0  0  0  0  0  0  0  0  0  0  0
   -7.9843  -10.0780   13.6055 C   0  0  0  0  0  0  0  0  0  0  0  0
   -9.1915  -10.0901   12.9098 C   0  0  0  0  0  0  0  0  0  0  0  0
  -10.2036  -10.3166   11.0127 H   0  0  0  0  0  0  0  0  0  0  0  0
   -8.1020  -10.4534    9.7079 H   0  0  0  0  0  0  0  0  0  0  0  0
   -5.9192  -10.4481   10.9152 H   0  0  0  0  0  0  0  0  0  0  0  0
   -7.4083  -10.9713   18.3491 H   0  0  0  0  0  0  0  0  0  0  0  0
   -7.6312  -12.9376   19.1694 H   0  0  0  0  0  0  0  0  0  0  0  0
   -8.8974  -12.7498   18.3313 H   0  0  0  0  0  0  0  0  0  0  0  0
   -8.0027  -15.9969   17.3507 H   0  0  0  0  0  0  0  0  0  0  0  0
   -8.7414  -15.5257   19.0187 H   0  0  0  0  0  0  0  0  0  0  0  0
   -4.9249  -16.5963   17.9161 H   0  0  0  0  0  0  0  0  0  0  0  0
   -4.6426  -20.6412   20.4724 H   0  0  0  0  0  0  0  0  0  0  0  0
   -5.4622  -20.7341   22.8208 H   0  0  0  0  0  0  0  0  0  0  0  0
   -6.7481  -18.8603   23.6623 H   0  0  0  0  0  0  0  0  0  0  0  0
   -7.5441  -17.0429   22.1392 H   0  0  0  0  0  0  0  0  0  0  0  0
  -10.0689   -9.8865   13.4940 H   0  0  0  0  0  0  0  0  0  0  0  0
  1  2  2  0
  2  3  1  0
  3  4  2  0
  4  5  1  0
  5  6  1  0
  6  7  1  0
  7  8  1  0
  8  9  1  0
  9 10  1  0
 10 11  1  0
 11 12  2  0
 12 13  1  0
 13 14  2  0
 14 15  1  0
 15 16  2  0
 16 17  1  0
 17 18  2  0
  6 19  2  0
 19 20  1  0
 20 21  2  0
 21  1  1  0
 20  4  1  0
 18 10  1  0
 18 13  1  0
  1 22  1  0
  2 23  1  0
  3 24  1  0
  7 25  1  0
  8 26  1  0
  8 27  1  0
  9 28  1  0
  9 29  1  0
 11 30  1  0
 14 31  1  0
 15 32  1  0
 16 33  1  0
 17 34  1  0
 21 35  1  0
M  END
>  <Energy>  (620) 
836.01006644993481

>  <compound_id>  (620) 
32712

>  <target_id>  (620) 
1

>  <reference_id>  (620) 
69

>  <inspiration_ids>  (620) 
[69, 52]

>  <energy_score>  (620) 
774.3872093102457

>  <distance_score>  (620) 
12.496231867680864

>  <path>  (620) 
/opt/xchem-fragalysis-2/maxwin/BulkDock/SCRATCH/511015/C32712-P69/C32712-P69.minimised.mol

>  <scratch_subdir>  (620) 
/opt/xchem-fragalysis-2/maxwin/BulkDock/SCRATCH/511015/C32712-P69

>  <fragmenstein_runtime>  (620) 
15.195341110229492

>  <fragmenstein_outcome>  (620) 
too moved

>  <fragmenstein_mode>  (620) 
expansion

>  <fragmenstein_error>  (620) 


$$$$
C32712-P52
     RDKit          3D

 35 38  0  0  0  0  0  0  0  0999 V2000
   -7.9486   -5.2793   15.1217 C   0  0  0  0  0  0  0  0  0  0  0  0
   -8.6863   -4.6345   16.0900 C   0  0  0  0  0  0  0  0  0  0  0  0
   -9.2909   -5.3856   17.1020 C   0  0  0  0  0  0  0  0  0  0  0  0
   -9.0788   -6.7945   17.1673 C   0  0  0  0  0  0  0  0  0  0  0  0
   -9.7524   -7.9690   18.2275 S   0  0  0  0  0  0  0  0  0  0  0  0
   -9.0183   -9.8980   17.7147 C   0  0  0  0  0  0  0  0  0  0  0  0
   -9.3102  -11.7197   18.0767 N   0  0  0  0  0  0  0  0  0  0  0  0
   -9.7902  -13.1482   19.3717 C   0  0  0  0  0  0  0  0  0  0  0  0
  -11.2395  -13.3276   20.9448 C   0  0  0  0  0  0  0  0  0  0  0  0
  -11.7904  -14.9304   22.0600 N   0  0  0  0  0  0  0  0  0  0  0  0
  -12.9155  -15.9775   21.2073 C   0  0  0  0  0  0  0  0  0  0  0  0
  -13.9864  -16.3578   21.8602 N   0  0  0  0  0  0  0  0  0  0  0  0
  -13.7327  -16.3051   23.1828 C   0  0  0  0  0  0  0  0  0  0  0  0
  -14.6846  -16.8009   24.1217 C   0  0  0  0  0  0  0  0  0  0  0  0
  -14.7889  -16.2540   25.3875 C   0  0  0  0  0  0  0  0  0  0  0  0
  -13.8383  -15.3502   25.7817 C   0  0  0  0  0  0  0  0  0  0  0  0
  -12.7400  -15.0529   24.9369 C   0  0  0  0  0  0  0  0  0  0  0  0
  -12.6557  -15.4264   23.4923 C   0  0  0  0  0  0  0  0  0  0  0  0
   -8.5421   -9.1371   16.4292 N   0  0  0  0  0  0  0  0  0  0  0  0
   -8.1761   -7.5040   16.3420 C   0  0  0  0  0  0  0  0  0  0  0  0
   -7.7659   -6.6739   15.2196 C   0  0  0  0  0  0  0  0  0  0  0  0
   -7.6135   -4.7460   14.2352 H   0  0  0  0  0  0  0  0  0  0  0  0
   -8.8697   -3.5660   16.0197 H   0  0  0  0  0  0  0  0  0  0  0  0
   -9.9474   -4.9088   17.8234 H   0  0  0  0  0  0  0  0  0  0  0  0
   -8.4655  -12.1317   17.6680 H   0  0  0  0  0  0  0  0  0  0  0  0
   -8.9025  -13.7668   19.3657 H   0  0  0  0  0  0  0  0  0  0  0  0
  -10.3274  -13.6858   18.5745 H   0  0  0  0  0  0  0  0  0  0  0  0
  -12.0436  -13.5253   20.3397 H   0  0  0  0  0  0  0  0  0  0  0  0
  -11.5132  -12.3737   21.4185 H   0  0  0  0  0  0  0  0  0  0  0  0
  -12.8757  -15.8513   20.1379 H   0  0  0  0  0  0  0  0  0  0  0  0
  -15.4696  -17.4579   23.7537 H   0  0  0  0  0  0  0  0  0  0  0  0
  -15.6111  -16.5112   26.0424 H   0  0  0  0  0  0  0  0  0  0  0  0
  -13.8863  -14.9200   26.7818 H   0  0  0  0  0  0  0  0  0  0  0  0
  -12.0683  -14.3769   25.4488 H   0  0  0  0  0  0  0  0  0  0  0  0
   -7.6723   -7.1504   14.2646 H   0  0  0  0  0  0  0  0  0  0  0  0
  1  2  2  0
  2  3  1  0
  3  4  2  0
  4  5  1  0
  5  6  1  0
  6  7  1  0
  7  8  1  0
  8  9  1  0
  9 10  1  0
 10 11  1  0
 11 12  2  0
 12 13  1  0
 13 14  2  0
 14 15  1  0
 15 16  2  0
 16 17  1  0
 17 18  2  0
  6 19  2  0
 19 20  1  0
 20 21  2  0
 21  1  1  0
 20  4  1  0
 18 10  1  0
 18 13  1  0
  1 22  1  0
  2 23  1  0
  3 24  1  0
  7 25  1  0
  8 26  1  0
  8 27  1  0
  9 28  1  0
  9 29  1  0
 11 30  1  0
 14 31  1  0
 15 32  1  0
 16 33  1  0
 17 34  1  0
 21 35  1  0
M  END
>  <Energy>  (621) 
723.70572868956867

>  <compound_id>  (621) 
32712

>  <target_id>  (621) 
1

>  <reference_id>  (621) 
52

>  <inspiration_ids>  (621) 
[69, 52]

>  <energy_score>  (621) 
662.0828715498772

>  <distance_score>  (621) 
11.602080646304199

>  <path>  (621) 
/opt/xchem-fragalysis-2/maxwin/BulkDock/SCRATCH/511015/C32712-P52/C32712-P52.minimised.mol

>  <scratch_subdir>  (621) 
/opt/xchem-fragalysis-2/maxwin/BulkDock/SCRATCH/511015/C32712-P52

>  <fragmenstein_runtime>  (621) 
18.09515905380249

>  <fragmenstein_outcome>  (621) 
too moved

>  <fragmenstein_mode>  (621) 
expansion

>  <fragmenstein_error>  (621) 


$$$$
C32682-P69
     RDKit          3D

 35 38  0  0  0  0  0  0  0  0999 V2000
   -7.4312   -6.8802   14.6210 F   0  0  0  0  0  0  0  0  0  0  0  0
   -7.0851   -6.4025   15.7939 C   0  0  0  0  0  0  0  0  0  0  0  0
   -6.3432   -5.2596   15.7495 C   0  0  0  0  0  0  0  0  0  0  0  0
   -5.4155   -5.3651   16.6970 C   0  0  0  0  0  0  0  0  0  0  0  0
   -5.7945   -6.2436   17.7708 C   0  0  0  0  0  0  0  0  0  0  0  0
   -7.3450   -6.8036   18.2210 C   0  0  0  0  0  0  0  0  0  0  0  0
   -8.4942   -7.8632   19.3011 N   0  0  0  0  0  0  0  0  0  0  0  0
   -8.5591   -9.5954   19.2340 C   0  0  0  0  0  0  0  0  0  0  0  0
   -9.3530  -11.2963   19.9164 N   0  0  0  0  0  0  0  0  0  0  0  0
   -9.5467  -11.9225   22.1426 C   0  0  0  0  0  0  0  0  0  0  0  0
   -9.9862  -12.2787   24.4681 C   0  0  0  0  0  0  0  0  0  0  0  0
   -8.7111  -13.9631   25.4360 N   0  0  0  0  0  0  0  0  0  0  0  0
   -8.5094  -13.5898   27.1220 C   0  0  0  0  0  0  0  0  0  0  0  0
   -7.5985  -14.2942   27.7049 N   0  0  0  0  0  0  0  0  0  0  0  0
   -7.5581  -15.4602   27.0318 C   0  0  0  0  0  0  0  0  0  0  0  0
   -6.8961  -16.6078   27.5405 C   0  0  0  0  0  0  0  0  0  0  0  0
   -7.0838  -17.8516   26.9718 C   0  0  0  0  0  0  0  0  0  0  0  0
   -7.9931  -17.9545   25.9460 C   0  0  0  0  0  0  0  0  0  0  0  0
   -8.6960  -16.8257   25.4585 C   0  0  0  0  0  0  0  0  0  0  0  0
   -8.3836  -15.4961   25.8708 C   0  0  0  0  0  0  0  0  0  0  0  0
   -7.1307   -8.9954   17.3318 S   0  0  0  0  0  0  0  0  0  0  0  0
   -7.1497   -7.3094   16.9790 C   0  0  0  0  0  0  0  0  0  0  0  0
   -6.2430   -4.6568   14.8607 H   0  0  0  0  0  0  0  0  0  0  0  0
   -4.4635   -4.8517   16.6839 H   0  0  0  0  0  0  0  0  0  0  0  0
   -4.9548   -6.3693   18.4917 H   0  0  0  0  0  0  0  0  0  0  0  0
   -8.6329  -11.9756   19.6009 H   0  0  0  0  0  0  0  0  0  0  0  0
  -10.6847  -12.0171   22.1886 H   0  0  0  0  0  0  0  0  0  0  0  0
   -9.3815  -12.9032   21.7103 H   0  0  0  0  0  0  0  0  0  0  0  0
  -11.0658  -12.3574   24.7411 H   0  0  0  0  0  0  0  0  0  0  0  0
   -9.8179  -11.4759   25.2902 H   0  0  0  0  0  0  0  0  0  0  0  0
   -9.0393  -12.6901   27.4150 H   0  0  0  0  0  0  0  0  0  0  0  0
   -6.2694  -16.4955   28.4215 H   0  0  0  0  0  0  0  0  0  0  0  0
   -6.5601  -18.7179   27.3592 H   0  0  0  0  0  0  0  0  0  0  0  0
   -8.1753  -18.9348   25.5098 H   0  0  0  0  0  0  0  0  0  0  0  0
   -9.4996  -17.0411   24.7856 H   0  0  0  0  0  0  0  0  0  0  0  0
  1  2  1  0
  2  3  2  0
  3  4  1  0
  4  5  2  0
  5  6  1  0
  6  7  1  0
  7  8  2  0
  8  9  1  0
  9 10  1  0
 10 11  1  0
 11 12  1  0
 12 13  1  0
 13 14  2  0
 14 15  1  0
 15 16  2  0
 16 17  1  0
 17 18  2  0
 18 19  1  0
 19 20  2  0
  8 21  1  0
 21 22  1  0
 22  2  1  0
 22  6  2  0
 20 12  1  0
 20 15  1  0
  3 23  1  0
  4 24  1  0
  5 25  1  0
  9 26  1  0
 10 27  1  0
 10 28  1  0
 11 29  1  0
 11 30  1  0
 13 31  1  0
 16 32  1  0
 17 33  1  0
 18 34  1  0
 19 35  1  0
M  END
>  <Energy>  (622) 
1793.1667279672124

>  <compound_id>  (622) 
32682

>  <target_id>  (622) 
1

>  <reference_id>  (622) 
69

>  <inspiration_ids>  (622) 
[69, 52]

>  <energy_score>  (622) 
1729.6017597133464

>  <distance_score>  (622) 
11.099691698079644

>  <path>  (622) 
/opt/xchem-fragalysis-2/maxwin/BulkDock/SCRATCH/511015/C32682-P69/C32682-P69.minimised.mol

>  <scratch_subdir>  (622) 
/opt/xchem-fragalysis-2/maxwin/BulkDock/SCRATCH/511015/C32682-P69

>  <fragmenstein_runtime>  (622) 
21.27197003364563

>  <fragmenstein_outcome>  (622) 
too moved

>  <fragmenstein_mode>  (622) 
expansion

>  <fragmenstein_error>  (622) 


$$$$
C32682-P52
     RDKit          3D

 35 38  0  0  0  0  0  0  0  0999 V2000
   -3.1378   -2.9570   10.8818 F   0  0  0  0  0  0  0  0  0  0  0  0
   -4.4136   -3.2395   10.6077 C   0  0  0  0  0  0  0  0  0  0  0  0
   -5.9225   -2.2504    9.0460 C   0  0  0  0  0  0  0  0  0  0  0  0
   -7.7146   -3.0774    7.8540 C   0  0  0  0  0  0  0  0  0  0  0  0
   -7.9737   -4.9870    8.9983 C   0  0  0  0  0  0  0  0  0  0  0  0
   -6.7794   -5.7105   10.5380 C   0  0  0  0  0  0  0  0  0  0  0  0
   -7.1731   -7.0413   11.8554 N   0  0  0  0  0  0  0  0  0  0  0  0
   -6.5684   -7.6594   13.2778 C   0  0  0  0  0  0  0  0  0  0  0  0
   -6.6450   -8.7546   14.7971 N   0  0  0  0  0  0  0  0  0  0  0  0
   -7.1712  -10.3453   15.9809 C   0  0  0  0  0  0  0  0  0  0  0  0
   -7.8432  -11.2584   17.8613 C   0  0  0  0  0  0  0  0  0  0  0  0
   -7.2016  -11.6040   19.7990 N   0  0  0  0  0  0  0  0  0  0  0  0
   -8.2696  -11.4125   21.3606 C   0  0  0  0  0  0  0  0  0  0  0  0
   -8.7069  -10.2802   21.8648 N   0  0  0  0  0  0  0  0  0  0  0  0
   -7.6789  -10.4174   22.5259 C   0  0  0  0  0  0  0  0  0  0  0  0
   -7.6677  -10.0444   23.9786 C   0  0  0  0  0  0  0  0  0  0  0  0
   -7.3101  -10.9518   24.7932 C   0  0  0  0  0  0  0  0  0  0  0  0
   -6.6277  -11.7136   24.0050 C   0  0  0  0  0  0  0  0  0  0  0  0
   -6.2126  -12.0678   22.6736 C   0  0  0  0  0  0  0  0  0  0  0  0
   -6.9074  -11.4274   21.6379 C   0  0  0  0  0  0  0  0  0  0  0  0
   -4.8724   -6.3748   13.0281 S   0  0  0  0  0  0  0  0  0  0  0  0
   -5.1919   -4.9996   11.4373 C   0  0  0  0  0  0  0  0  0  0  0  0
   -5.9944   -1.1264    9.0855 H   0  0  0  0  0  0  0  0  0  0  0  0
   -8.4113   -2.5311    7.2105 H   0  0  0  0  0  0  0  0  0  0  0  0
   -8.4689   -5.8662    8.4843 H   0  0  0  0  0  0  0  0  0  0  0  0
   -5.7592   -8.5010   15.2423 H   0  0  0  0  0  0  0  0  0  0  0  0
   -6.4132  -10.9642   15.5476 H   0  0  0  0  0  0  0  0  0  0  0  0
   -8.0109   -9.7001   15.8776 H   0  0  0  0  0  0  0  0  0  0  0  0
   -8.6445  -10.5769   18.0673 H   0  0  0  0  0  0  0  0  0  0  0  0
   -8.1128  -12.3039   17.6901 H   0  0  0  0  0  0  0  0  0  0  0  0
   -9.1283  -12.0822   21.3114 H   0  0  0  0  0  0  0  0  0  0  0  0
   -8.1638   -9.2880   24.5434 H   0  0  0  0  0  0  0  0  0  0  0  0
   -7.3724  -11.3554   25.7773 H   0  0  0  0  0  0  0  0  0  0  0  0
   -7.0118  -12.6067   24.6805 H   0  0  0  0  0  0  0  0  0  0  0  0
   -5.7607  -13.0277   22.5922 H   0  0  0  0  0  0  0  0  0  0  0  0
  1  2  1  0
  2  3  2  0
  3  4  1  0
  4  5  2  0
  5  6  1  0
  6  7  1  0
  7  8  2  0
  8  9  1  0
  9 10  1  0
 10 11  1  0
 11 12  1  0
 12 13  1  0
 13 14  2  0
 14 15  1  0
 15 16  2  0
 16 17  1  0
 17 18  2  0
 18 19  1  0
 19 20  2  0
  8 21  1  0
 21 22  1  0
 22  2  1  0
 22  6  2  0
 20 12  1  0
 20 15  1  0
  3 23  1  0
  4 24  1  0
  5 25  1  0
  9 26  1  0
 10 27  1  0
 10 28  1  0
 11 29  1  0
 11 30  1  0
 13 31  1  0
 16 32  1  0
 17 33  1  0
 18 34  1  0
 19 35  1  0
M  END
>  <Energy>  (623) 
3137.0123151255457

>  <compound_id>  (623) 
32682

>  <target_id>  (623) 
1

>  <reference_id>  (623) 
52

>  <inspiration_ids>  (623) 
[69, 52]

>  <energy_score>  (623) 
3073.447346871676

>  <distance_score>  (623) 
11.839855821307363

>  <path>  (623) 
/opt/xchem-fragalysis-2/maxwin/BulkDock/SCRATCH/511015/C32682-P52/C32682-P52.minimised.mol

>  <scratch_subdir>  (623) 
/opt/xchem-fragalysis-2/maxwin/BulkDock/SCRATCH/511015/C32682-P52

>  <fragmenstein_runtime>  (623) 
21.272274017333984

>  <fragmenstein_outcome>  (623) 
too moved

>  <fragmenstein_mode>  (623) 
expansion

>  <fragmenstein_error>  (623) 


$$$$
C32691-P69
     RDKit          3D

 40 43  0  0  0  0  0  0  0  0999 V2000
   -7.5398  -10.4956    9.8800 N   0  0  0  0  0  0  0  0  0  0  0  0
   -7.7486  -11.1855   11.0836 C   0  0  0  0  0  0  0  0  0  0  0  0
   -8.2027  -12.5114   11.1147 C   0  0  0  0  0  0  0  0  0  0  0  0
   -8.6065  -13.1651   12.3248 C   0  0  0  0  0  0  0  0  0  0  0  0
   -8.6140  -12.4356   13.5336 C   0  0  0  0  0  0  0  0  0  0  0  0
   -9.0640  -12.7609   14.9931 N   0  0  0  0  0  0  0  0  0  0  0  0
   -8.5176  -12.0850   16.3806 C   0  0  0  0  0  0  0  0  0  0  0  0
   -9.1154  -12.3284   18.1980 N   0  0  0  0  0  0  0  0  0  0  0  0
   -9.5438  -13.3866   19.9000 C   0  0  0  0  0  0  0  0  0  0  0  0
  -10.7315  -13.5557   21.8162 C   0  0  0  0  0  0  0  0  0  0  0  0
  -11.1566  -15.2281   23.2835 C   0  0  0  0  0  0  0  0  0  0  0  0
  -10.4706  -16.7179   24.6258 N   0  0  0  0  0  0  0  0  0  0  0  0
   -9.6230  -15.9760   26.0807 C   0  0  0  0  0  0  0  0  0  0  0  0
  -10.4491  -15.8298   27.1080 N   0  0  0  0  0  0  0  0  0  0  0  0
  -10.4930  -17.1585   27.4120 C   0  0  0  0  0  0  0  0  0  0  0  0
  -10.9306  -18.1993   28.9662 C   0  0  0  0  0  0  0  0  0  0  0  0
  -10.2496  -20.0866   29.2951 C   0  0  0  0  0  0  0  0  0  0  0  0
   -9.1865  -20.1629   27.6875 C   0  0  0  0  0  0  0  0  0  0  0  0
   -8.6868  -18.8865   26.6387 C   0  0  0  0  0  0  0  0  0  0  0  0
   -9.7200  -17.4577   26.1935 C   0  0  0  0  0  0  0  0  0  0  0  0
   -8.9483  -10.5173   14.7655 S   0  0  0  0  0  0  0  0  0  0  0  0
   -8.2474  -11.1400   13.4132 C   0  0  0  0  0  0  0  0  0  0  0  0
   -7.7773  -10.4770   12.2706 C   0  0  0  0  0  0  0  0  0  0  0  0
   -7.0057   -9.6373    9.9794 H   0  0  0  0  0  0  0  0  0  0  0  0
   -7.1966  -11.0839    9.1282 H   0  0  0  0  0  0  0  0  0  0  0  0
   -8.2722  -13.0746   10.1860 H   0  0  0  0  0  0  0  0  0  0  0  0
   -8.9487  -14.1938   12.3106 H   0  0  0  0  0  0  0  0  0  0  0  0
   -8.1897  -12.0912   18.5997 H   0  0  0  0  0  0  0  0  0  0  0  0
   -8.5146  -13.6046   20.1129 H   0  0  0  0  0  0  0  0  0  0  0  0
  -10.0414  -14.1478   19.3251 H   0  0  0  0  0  0  0  0  0  0  0  0
  -10.9509  -12.5373   22.1833 H   0  0  0  0  0  0  0  0  0  0  0  0
  -11.5726  -13.4900   21.2396 H   0  0  0  0  0  0  0  0  0  0  0  0
  -11.7892  -15.9342   22.7275 H   0  0  0  0  0  0  0  0  0  0  0  0
  -12.0632  -15.0750   23.9130 H   0  0  0  0  0  0  0  0  0  0  0  0
   -8.6751  -15.4750   25.8198 H   0  0  0  0  0  0  0  0  0  0  0  0
  -11.9353  -17.8277   29.2137 H   0  0  0  0  0  0  0  0  0  0  0  0
  -10.8644  -20.9015   29.6741 H   0  0  0  0  0  0  0  0  0  0  0  0
   -8.9883  -21.1873   27.3121 H   0  0  0  0  0  0  0  0  0  0  0  0
   -8.1738  -19.3399   25.7625 H   0  0  0  0  0  0  0  0  0  0  0  0
   -7.5718   -9.4174   12.2965 H   0  0  0  0  0  0  0  0  0  0  0  0
  1  2  1  0
  2  3  2  0
  3  4  1  0
  4  5  2  0
  5  6  1  0
  6  7  2  0
  7  8  1  0
  8  9  1  0
  9 10  1  0
 10 11  1  0
 11 12  1  0
 12 13  1  0
 13 14  2  0
 14 15  1  0
 15 16  2  0
 16 17  1  0
 17 18  2  0
 18 19  1  0
 19 20  2  0
  7 21  1  0
 21 22  1  0
 22 23  2  0
 23  2  1  0
 22  5  1  0
 20 12  1  0
 20 15  1  0
  1 24  1  0
  1 25  1  0
  3 26  1  0
  4 27  1  0
  8 28  1  0
  9 29  1  0
  9 30  1  0
 10 31  1  0
 10 32  1  0
 11 33  1  0
 11 34  1  0
 13 35  1  0
 16 36  1  0
 17 37  1  0
 18 38  1  0
 19 39  1  0
 23 40  1  0
M  END
>  <Energy>  (624) 
1740.1996632059975

>  <compound_id>  (624) 
32691

>  <target_id>  (624) 
1

>  <reference_id>  (624) 
69

>  <inspiration_ids>  (624) 
[69, 52]

>  <energy_score>  (624) 
1691.5658962629664

>  <distance_score>  (624) 
10.562001172231955

>  <path>  (624) 
/opt/xchem-fragalysis-2/maxwin/BulkDock/SCRATCH/511015/C32691-P69/C32691-P69.minimised.mol

>  <scratch_subdir>  (624) 
/opt/xchem-fragalysis-2/maxwin/BulkDock/SCRATCH/511015/C32691-P69

>  <fragmenstein_runtime>  (624) 
18.800666332244873

>  <fragmenstein_outcome>  (624) 
too moved

>  <fragmenstein_mode>  (624) 
expansion

>  <fragmenstein_error>  (624) 


$$$$
C32691-P52
     RDKit          3D

 40 43  0  0  0  0  0  0  0  0999 V2000
  -10.5290  -11.4734    8.6896 N   0  0  0  0  0  0  0  0  0  0  0  0
  -10.1477  -11.5010   10.0386 C   0  0  0  0  0  0  0  0  0  0  0  0
   -8.9567  -10.8975   10.4055 C   0  0  0  0  0  0  0  0  0  0  0  0
   -8.5749  -10.8918   11.7396 C   0  0  0  0  0  0  0  0  0  0  0  0
   -9.3164  -11.6272   12.6909 C   0  0  0  0  0  0  0  0  0  0  0  0
   -9.1040  -11.6949   14.0755 N   0  0  0  0  0  0  0  0  0  0  0  0
   -9.3539  -12.6214   15.0873 C   0  0  0  0  0  0  0  0  0  0  0  0
   -9.5700  -12.8795   16.9594 N   0  0  0  0  0  0  0  0  0  0  0  0
  -10.3712  -14.0073   18.4682 C   0  0  0  0  0  0  0  0  0  0  0  0
  -11.4495  -15.7208   19.2266 C   0  0  0  0  0  0  0  0  0  0  0  0
  -13.1272  -16.1422   20.3134 C   0  0  0  0  0  0  0  0  0  0  0  0
  -13.6512  -16.3172   21.7984 N   0  0  0  0  0  0  0  0  0  0  0  0
  -12.9796  -15.9860   22.9592 C   0  0  0  0  0  0  0  0  0  0  0  0
  -13.5494  -16.3127   24.0795 N   0  0  0  0  0  0  0  0  0  0  0  0
  -14.6214  -17.0373   23.6782 C   0  0  0  0  0  0  0  0  0  0  0  0
  -15.4528  -17.8152   24.4754 C   0  0  0  0  0  0  0  0  0  0  0  0
  -16.4488  -18.5885   23.9003 C   0  0  0  0  0  0  0  0  0  0  0  0
  -16.6548  -18.5149   22.5279 C   0  0  0  0  0  0  0  0  0  0  0  0
  -15.8631  -17.6986   21.6969 C   0  0  0  0  0  0  0  0  0  0  0  0
  -14.8062  -16.9902   22.2909 C   0  0  0  0  0  0  0  0  0  0  0  0
  -10.9453  -13.2047   13.6971 S   0  0  0  0  0  0  0  0  0  0  0  0
  -10.3812  -12.3604   12.3113 C   0  0  0  0  0  0  0  0  0  0  0  0
  -10.8417  -12.2962   10.9753 C   0  0  0  0  0  0  0  0  0  0  0  0
  -10.1706  -10.6554    8.2050 H   0  0  0  0  0  0  0  0  0  0  0  0
  -11.5299  -11.5759    8.5617 H   0  0  0  0  0  0  0  0  0  0  0  0
   -8.3437  -10.3800    9.6737 H   0  0  0  0  0  0  0  0  0  0  0  0
   -7.6745  -10.3712   12.0281 H   0  0  0  0  0  0  0  0  0  0  0  0
   -8.7053  -12.5170   17.3787 H   0  0  0  0  0  0  0  0  0  0  0  0
   -9.8957  -13.3690   19.2200 H   0  0  0  0  0  0  0  0  0  0  0  0
   -9.4219  -14.6285   18.5793 H   0  0  0  0  0  0  0  0  0  0  0  0
  -11.8192  -15.3375   20.3105 H   0  0  0  0  0  0  0  0  0  0  0  0
  -12.3979  -15.9789   18.7218 H   0  0  0  0  0  0  0  0  0  0  0  0
  -13.4570  -15.1915   20.1953 H   0  0  0  0  0  0  0  0  0  0  0  0
  -13.8720  -16.7543   19.8268 H   0  0  0  0  0  0  0  0  0  0  0  0
  -12.0587  -15.5006   22.8415 H   0  0  0  0  0  0  0  0  0  0  0  0
  -15.2262  -17.8156   25.5214 H   0  0  0  0  0  0  0  0  0  0  0  0
  -17.0670  -19.2354   24.5135 H   0  0  0  0  0  0  0  0  0  0  0  0
  -17.4484  -19.1106   22.0794 H   0  0  0  0  0  0  0  0  0  0  0  0
  -16.0171  -17.6948   20.6230 H   0  0  0  0  0  0  0  0  0  0  0  0
  -11.7183  -12.8623   10.6783 H   0  0  0  0  0  0  0  0  0  0  0  0
  1  2  1  0
  2  3  2  0
  3  4  1  0
  4  5  2  0
  5  6  1  0
  6  7  2  0
  7  8  1  0
  8  9  1  0
  9 10  1  0
 10 11  1  0
 11 12  1  0
 12 13  1  0
 13 14  2  0
 14 15  1  0
 15 16  2  0
 16 17  1  0
 17 18  2  0
 18 19  1  0
 19 20  2  0
  7 21  1  0
 21 22  1  0
 22 23  2  0
 23  2  1  0
 22  5  1  0
 20 12  1  0
 20 15  1  0
  1 24  1  0
  1 25  1  0
  3 26  1  0
  4 27  1  0
  8 28  1  0
  9 29  1  0
  9 30  1  0
 10 31  1  0
 10 32  1  0
 11 33  1  0
 11 34  1  0
 13 35  1  0
 16 36  1  0
 17 37  1  0
 18 38  1  0
 19 39  1  0
 23 40  1  0
M  END
>  <Energy>  (625) 
703.28303525132674

>  <compound_id>  (625) 
32691

>  <target_id>  (625) 
1

>  <reference_id>  (625) 
52

>  <inspiration_ids>  (625) 
[69, 52]

>  <energy_score>  (625) 
654.6492683083011

>  <distance_score>  (625) 
12.250839417534644

>  <path>  (625) 
/opt/xchem-fragalysis-2/maxwin/BulkDock/SCRATCH/511015/C32691-P52/C32691-P52.minimised.mol

>  <scratch_subdir>  (625) 
/opt/xchem-fragalysis-2/maxwin/BulkDock/SCRATCH/511015/C32691-P52

>  <fragmenstein_runtime>  (625) 
26.430309057235718

>  <fragmenstein_outcome>  (625) 
too moved

>  <fragmenstein_mode>  (625) 
expansion

>  <fragmenstein_error>  (625) 


$$$$
C69618-P106
     RDKit          3D

 41 45  0  0  0  0  0  0  0  0999 V2000
    4.5464   -1.1925   29.0105 O   0  0  0  0  0  0  0  0  0  0  0  0
    3.5093   -1.2904   28.4206 C   0  0  0  0  0  0  0  0  0  0  0  0
    3.2261   -1.7535   27.0998 N   0  0  0  0  0  0  0  0  0  0  0  0
    4.0568   -2.1342   26.0852 C   0  0  0  0  0  0  0  0  0  0  0  0
    3.5474   -2.5472   24.8722 C   0  0  0  0  0  0  0  0  0  0  0  0
    4.1184   -2.3036   23.3368 C   0  0  0  0  0  0  0  0  0  0  0  0
    5.4812   -1.7945   22.6430 C   0  0  0  0  0  0  0  0  0  0  0  0
    6.6325   -1.4244   21.0032 C   0  0  0  0  0  0  0  0  0  0  0  0
    8.0030   -1.1516   19.9280 C   0  0  0  0  0  0  0  0  0  0  0  0
    9.5727   -2.5053   19.9131 N   0  0  0  0  0  0  0  0  0  0  0  0
   11.6090   -2.7373   19.5280 C   0  0  0  0  0  0  0  0  0  0  0  0
   11.9260   -2.2651   17.8709 C   0  0  0  0  0  0  0  0  0  0  0  0
   10.7856   -0.8725   17.0379 C   0  0  0  0  0  0  0  0  0  0  0  0
    9.3876   -0.1966   17.6471 N   0  0  0  0  0  0  0  0  0  0  0  0
    8.6907   -0.8710   19.2475 C   0  0  0  0  0  0  0  0  0  0  0  0
    7.5922   -0.2180   20.3389 N   0  0  0  0  0  0  0  0  0  0  0  0
    5.6903   -1.8338   24.3877 C   0  0  0  0  0  0  0  0  0  0  0  0
    5.3464   -1.8392   25.9140 C   0  0  0  0  0  0  0  0  0  0  0  0
    2.2812   -0.7566   29.1054 C   0  0  0  0  0  0  0  0  0  0  0  0
    2.4999    0.3805   29.9219 C   0  0  0  0  0  0  0  0  0  0  0  0
    1.4450    1.2062   30.2990 C   0  0  0  0  0  0  0  0  0  0  0  0
    0.1982    0.8783   29.8271 C   0  0  0  0  0  0  0  0  0  0  0  0
   -0.0375   -0.2565   29.0861 C   0  0  0  0  0  0  0  0  0  0  0  0
    0.9737   -1.1242   28.7438 C   0  0  0  0  0  0  0  0  0  0  0  0
   -1.3353   -0.3555   28.6929 O   0  0  0  0  0  0  0  0  0  0  0  0
   -1.8530    0.8934   29.1860 C   0  0  0  0  0  0  0  0  0  0  0  0
   -0.9156    1.6286   29.9922 O   0  0  0  0  0  0  0  0  0  0  0  0
    2.2449   -1.6190   26.9066 H   0  0  0  0  0  0  0  0  0  0  0  0
    2.8422   -3.3375   24.9631 H   0  0  0  0  0  0  0  0  0  0  0  0
    3.2436   -2.8200   22.8923 H   0  0  0  0  0  0  0  0  0  0  0  0
    7.0557   -1.0245   18.9110 H   0  0  0  0  0  0  0  0  0  0  0  0
   12.2178   -3.4245   20.1600 H   0  0  0  0  0  0  0  0  0  0  0  0
   12.8726   -2.4293   17.3652 H   0  0  0  0  0  0  0  0  0  0  0  0
   11.1556   -0.4567   16.0850 H   0  0  0  0  0  0  0  0  0  0  0  0
    4.7080   -0.9843   24.6203 H   0  0  0  0  0  0  0  0  0  0  0  0
    6.0869   -1.6264   26.6691 H   0  0  0  0  0  0  0  0  0  0  0  0
    3.5161    0.6678   30.1920 H   0  0  0  0  0  0  0  0  0  0  0  0
    1.6128    2.1051   30.8807 H   0  0  0  0  0  0  0  0  0  0  0  0
    0.7468   -1.9970   28.1421 H   0  0  0  0  0  0  0  0  0  0  0  0
   -2.7206    0.6884   29.8154 H   0  0  0  0  0  0  0  0  0  0  0  0
   -2.1557    1.5158   28.3359 H   0  0  0  0  0  0  0  0  0  0  0  0
  1  2  2  0
  2  3  1  0
  3  4  1  0
  4  5  2  0
  5  6  1  0
  6  7  2  0
  7  8  1  0
  8  9  2  0
  9 10  1  0
 10 11  1  0
 11 12  2  0
 12 13  1  0
 13 14  2  0
 14 15  1  0
 15 16  2  0
  7 17  1  0
 17 18  2  0
  2 19  1  0
 19 20  2  0
 20 21  1  0
 21 22  2  0
 22 23  1  0
 23 24  2  0
 23 25  1  0
 25 26  1  0
 26 27  1  0
 18  4  1  0
 24 19  1  0
 16  8  1  0
 27 22  1  0
 15 10  1  0
  3 28  1  0
  5 29  1  0
  6 30  1  0
  9 31  1  0
 11 32  1  0
 12 33  1  0
 13 34  1  0
 17 35  1  0
 18 36  1  0
 20 37  1  0
 21 38  1  0
 24 39  1  0
 26 40  1  0
 26 41  1  0
M  END
>  <Energy>  (626) 
1864.4830812959865

>  <compound_id>  (626) 
69618

>  <target_id>  (626) 
1

>  <reference_id>  (626) 
106

>  <inspiration_ids>  (626) 
[106, 13]

>  <energy_score>  (626) 
1755.1997769218929

>  <distance_score>  (626) 
5.063566311922027

>  <path>  (626) 
/opt/xchem-fragalysis-2/maxwin/BulkDock/SCRATCH/511015/C69618-P106/C69618-P106.minimised.mol

>  <scratch_subdir>  (626) 
/opt/xchem-fragalysis-2/maxwin/BulkDock/SCRATCH/511015/C69618-P106

>  <fragmenstein_runtime>  (626) 
9.412210941314697

>  <fragmenstein_outcome>  (626) 
too moved

>  <fragmenstein_mode>  (626) 
expansion

>  <fragmenstein_error>  (626) 


$$$$
C69618-P13
     RDKit          3D

 41 45  0  0  0  0  0  0  0  0999 V2000
    3.6033    1.9284   25.1415 O   0  0  0  0  0  0  0  0  0  0  0  0
    2.9342    2.8436   24.8233 C   0  0  0  0  0  0  0  0  0  0  0  0
    3.0016    3.7636   23.5354 N   0  0  0  0  0  0  0  0  0  0  0  0
    3.8208    3.6722   22.3838 C   0  0  0  0  0  0  0  0  0  0  0  0
    4.1991    4.6414   21.4770 C   0  0  0  0  0  0  0  0  0  0  0  0
    5.1195    4.3918   20.2653 C   0  0  0  0  0  0  0  0  0  0  0  0
    5.5874    3.1179   19.8836 C   0  0  0  0  0  0  0  0  0  0  0  0
    6.7739    2.6719   18.8335 C   0  0  0  0  0  0  0  0  0  0  0  0
    7.2493    1.3924   18.4744 C   0  0  0  0  0  0  0  0  0  0  0  0
    8.2952    1.5438   17.5563 N   0  0  0  0  0  0  0  0  0  0  0  0
    9.0223    0.6336   16.7724 C   0  0  0  0  0  0  0  0  0  0  0  0
   10.0149    1.0481   15.9711 C   0  0  0  0  0  0  0  0  0  0  0  0
   10.2090    2.5165   15.9607 C   0  0  0  0  0  0  0  0  0  0  0  0
    9.4997    3.3852   16.6127 N   0  0  0  0  0  0  0  0  0  0  0  0
    8.5119    2.9070   17.4391 C   0  0  0  0  0  0  0  0  0  0  0  0
    7.6054    3.5721   18.1529 N   0  0  0  0  0  0  0  0  0  0  0  0
    4.9895    2.2003   20.7675 C   0  0  0  0  0  0  0  0  0  0  0  0
    4.2583    2.4442   22.0107 C   0  0  0  0  0  0  0  0  0  0  0  0
    1.7583    3.0845   25.7866 C   0  0  0  0  0  0  0  0  0  0  0  0
    0.9242    4.1992   25.7219 C   0  0  0  0  0  0  0  0  0  0  0  0
   -0.3552    4.1846   26.3020 C   0  0  0  0  0  0  0  0  0  0  0  0
   -0.8024    3.0310   26.8957 C   0  0  0  0  0  0  0  0  0  0  0  0
    0.0192    1.9565   27.0615 C   0  0  0  0  0  0  0  0  0  0  0  0
    1.3270    1.9910   26.6069 C   0  0  0  0  0  0  0  0  0  0  0  0
   -0.6420    0.8895   27.5814 O   0  0  0  0  0  0  0  0  0  0  0  0
   -1.9954    1.3932   27.5959 C   0  0  0  0  0  0  0  0  0  0  0  0
   -2.0708    2.7984   27.3065 O   0  0  0  0  0  0  0  0  0  0  0  0
    2.3291    4.5094   23.6174 H   0  0  0  0  0  0  0  0  0  0  0  0
    3.9130    5.6798   21.6424 H   0  0  0  0  0  0  0  0  0  0  0  0
    5.4588    5.2665   19.7097 H   0  0  0  0  0  0  0  0  0  0  0  0
    6.9254    0.4120   18.7728 H   0  0  0  0  0  0  0  0  0  0  0  0
    8.6984   -0.3889   16.7527 H   0  0  0  0  0  0  0  0  0  0  0  0
   10.5745    0.4191   15.2927 H   0  0  0  0  0  0  0  0  0  0  0  0
   11.0172    2.8788   15.3040 H   0  0  0  0  0  0  0  0  0  0  0  0
    5.2794    1.2017   20.5096 H   0  0  0  0  0  0  0  0  0  0  0  0
    4.1961    1.6557   22.7285 H   0  0  0  0  0  0  0  0  0  0  0  0
    1.2148    5.0947   25.1820 H   0  0  0  0  0  0  0  0  0  0  0  0
   -1.0215    5.0379   26.2034 H   0  0  0  0  0  0  0  0  0  0  0  0
    1.9549    1.1096   26.7245 H   0  0  0  0  0  0  0  0  0  0  0  0
   -2.4083    1.2124   28.5908 H   0  0  0  0  0  0  0  0  0  0  0  0
   -2.5870    0.8410   26.8561 H   0  0  0  0  0  0  0  0  0  0  0  0
  1  2  2  0
  2  3  1  0
  3  4  1  0
  4  5  2  0
  5  6  1  0
  6  7  2  0
  7  8  1  0
  8  9  2  0
  9 10  1  0
 10 11  1  0
 11 12  2  0
 12 13  1  0
 13 14  2  0
 14 15  1  0
 15 16  2  0
  7 17  1  0
 17 18  2  0
  2 19  1  0
 19 20  2  0
 20 21  1  0
 21 22  2  0
 22 23  1  0
 23 24  2  0
 23 25  1  0
 25 26  1  0
 26 27  1  0
 18  4  1  0
 24 19  1  0
 16  8  1  0
 27 22  1  0
 15 10  1  0
  3 28  1  0
  5 29  1  0
  6 30  1  0
  9 31  1  0
 11 32  1  0
 12 33  1  0
 13 34  1  0
 17 35  1  0
 18 36  1  0
 20 37  1  0
 21 38  1  0
 24 39  1  0
 26 40  1  0
 26 41  1  0
M  END
>  <Energy>  (627) 
131.44101319266707

>  <compound_id>  (627) 
69618

>  <target_id>  (627) 
1

>  <reference_id>  (627) 
13

>  <inspiration_ids>  (627) 
[106, 13]

>  <energy_score>  (627) 
32.4506106009419

>  <distance_score>  (627) 
6.8915187571305445

>  <path>  (627) 
/opt/xchem-fragalysis-2/maxwin/BulkDock/SCRATCH/511015/C69618-P13/C69618-P13.minimised.mol

>  <scratch_subdir>  (627) 
/opt/xchem-fragalysis-2/maxwin/BulkDock/SCRATCH/511015/C69618-P13

>  <fragmenstein_runtime>  (627) 
8.050239324569702

>  <fragmenstein_outcome>  (627) 
too moved

>  <fragmenstein_mode>  (627) 
expansion

>  <fragmenstein_error>  (627) 


$$$$
C69618-P106
     RDKit          3D

 41 45  0  0  0  0  0  0  0  0999 V2000
    4.5464   -1.1925   29.0105 O   0  0  0  0  0  0  0  0  0  0  0  0
    3.5093   -1.2904   28.4206 C   0  0  0  0  0  0  0  0  0  0  0  0
    3.2261   -1.7535   27.0998 N   0  0  0  0  0  0  0  0  0  0  0  0
    4.0568   -2.1342   26.0852 C   0  0  0  0  0  0  0  0  0  0  0  0
    3.5474   -2.5472   24.8722 C   0  0  0  0  0  0  0  0  0  0  0  0
    4.1184   -2.3036   23.3368 C   0  0  0  0  0  0  0  0  0  0  0  0
    5.4812   -1.7945   22.6430 C   0  0  0  0  0  0  0  0  0  0  0  0
    6.6325   -1.4244   21.0032 C   0  0  0  0  0  0  0  0  0  0  0  0
    8.0030   -1.1516   19.9280 C   0  0  0  0  0  0  0  0  0  0  0  0
    9.5727   -2.5053   19.9131 N   0  0  0  0  0  0  0  0  0  0  0  0
   11.6090   -2.7373   19.5280 C   0  0  0  0  0  0  0  0  0  0  0  0
   11.9260   -2.2651   17.8709 C   0  0  0  0  0  0  0  0  0  0  0  0
   10.7856   -0.8725   17.0379 C   0  0  0  0  0  0  0  0  0  0  0  0
    9.3876   -0.1966   17.6471 N   0  0  0  0  0  0  0  0  0  0  0  0
    8.6907   -0.8710   19.2475 C   0  0  0  0  0  0  0  0  0  0  0  0
    7.5922   -0.2180   20.3389 N   0  0  0  0  0  0  0  0  0  0  0  0
    5.6903   -1.8338   24.3877 C   0  0  0  0  0  0  0  0  0  0  0  0
    5.3464   -1.8392   25.9140 C   0  0  0  0  0  0  0  0  0  0  0  0
    2.2812   -0.7566   29.1054 C   0  0  0  0  0  0  0  0  0  0  0  0
    2.4999    0.3805   29.9219 C   0  0  0  0  0  0  0  0  0  0  0  0
    1.4450    1.2062   30.2990 C   0  0  0  0  0  0  0  0  0  0  0  0
    0.1982    0.8783   29.8271 C   0  0  0  0  0  0  0  0  0  0  0  0
   -0.0375   -0.2565   29.0861 C   0  0  0  0  0  0  0  0  0  0  0  0
    0.9737   -1.1242   28.7438 C   0  0  0  0  0  0  0  0  0  0  0  0
   -1.3353   -0.3555   28.6929 O   0  0  0  0  0  0  0  0  0  0  0  0
   -1.8530    0.8934   29.1860 C   0  0  0  0  0  0  0  0  0  0  0  0
   -0.9156    1.6286   29.9922 O   0  0  0  0  0  0  0  0  0  0  0  0
    2.2449   -1.6190   26.9066 H   0  0  0  0  0  0  0  0  0  0  0  0
    2.8422   -3.3375   24.9631 H   0  0  0  0  0  0  0  0  0  0  0  0
    3.2436   -2.8200   22.8923 H   0  0  0  0  0  0  0  0  0  0  0  0
    7.0557   -1.0245   18.9110 H   0  0  0  0  0  0  0  0  0  0  0  0
   12.2178   -3.4245   20.1600 H   0  0  0  0  0  0  0  0  0  0  0  0
   12.8726   -2.4293   17.3652 H   0  0  0  0  0  0  0  0  0  0  0  0
   11.1556   -0.4567   16.0850 H   0  0  0  0  0  0  0  0  0  0  0  0
    4.7080   -0.9843   24.6203 H   0  0  0  0  0  0  0  0  0  0  0  0
    6.0869   -1.6264   26.6691 H   0  0  0  0  0  0  0  0  0  0  0  0
    3.5161    0.6678   30.1920 H   0  0  0  0  0  0  0  0  0  0  0  0
    1.6128    2.1051   30.8807 H   0  0  0  0  0  0  0  0  0  0  0  0
    0.7468   -1.9970   28.1421 H   0  0  0  0  0  0  0  0  0  0  0  0
   -2.7206    0.6884   29.8154 H   0  0  0  0  0  0  0  0  0  0  0  0
   -2.1557    1.5158   28.3359 H   0  0  0  0  0  0  0  0  0  0  0  0
  1  2  2  0
  2  3  1  0
  3  4  1  0
  4  5  2  0
  5  6  1  0
  6  7  2  0
  7  8  1  0
  8  9  2  0
  9 10  1  0
 10 11  1  0
 11 12  2  0
 12 13  1  0
 13 14  2  0
 14 15  1  0
 15 16  2  0
  7 17  1  0
 17 18  2  0
  2 19  1  0
 19 20  2  0
 20 21  1  0
 21 22  2  0
 22 23  1  0
 23 24  2  0
 23 25  1  0
 25 26  1  0
 26 27  1  0
 18  4  1  0
 24 19  1  0
 16  8  1  0
 27 22  1  0
 15 10  1  0
  3 28  1  0
  5 29  1  0
  6 30  1  0
  9 31  1  0
 11 32  1  0
 12 33  1  0
 13 34  1  0
 17 35  1  0
 18 36  1  0
 20 37  1  0
 21 38  1  0
 24 39  1  0
 26 40  1  0
 26 41  1  0
M  END
>  <Energy>  (628) 
1864.4830812959865

>  <compound_id>  (628) 
69618

>  <target_id>  (628) 
1

>  <reference_id>  (628) 
106

>  <inspiration_ids>  (628) 
[106, 13]

>  <energy_score>  (628) 
1755.1997769218929

>  <distance_score>  (628) 
5.063566311922027

>  <path>  (628) 
/opt/xchem-fragalysis-2/maxwin/BulkDock/SCRATCH/511015/C69618-P106/C69618-P106.minimised.mol

>  <scratch_subdir>  (628) 
/opt/xchem-fragalysis-2/maxwin/BulkDock/SCRATCH/511015/C69618-P106

>  <fragmenstein_runtime>  (628) 
9.12722396850586

>  <fragmenstein_outcome>  (628) 
too moved

>  <fragmenstein_mode>  (628) 
expansion

>  <fragmenstein_error>  (628) 


$$$$
C69618-P13
     RDKit          3D

 41 45  0  0  0  0  0  0  0  0999 V2000
    3.6033    1.9284   25.1415 O   0  0  0  0  0  0  0  0  0  0  0  0
    2.9342    2.8436   24.8233 C   0  0  0  0  0  0  0  0  0  0  0  0
    3.0016    3.7636   23.5354 N   0  0  0  0  0  0  0  0  0  0  0  0
    3.8208    3.6722   22.3838 C   0  0  0  0  0  0  0  0  0  0  0  0
    4.1991    4.6414   21.4770 C   0  0  0  0  0  0  0  0  0  0  0  0
    5.1195    4.3918   20.2653 C   0  0  0  0  0  0  0  0  0  0  0  0
    5.5874    3.1179   19.8836 C   0  0  0  0  0  0  0  0  0  0  0  0
    6.7739    2.6719   18.8335 C   0  0  0  0  0  0  0  0  0  0  0  0
    7.2493    1.3924   18.4744 C   0  0  0  0  0  0  0  0  0  0  0  0
    8.2952    1.5438   17.5563 N   0  0  0  0  0  0  0  0  0  0  0  0
    9.0223    0.6336   16.7724 C   0  0  0  0  0  0  0  0  0  0  0  0
   10.0149    1.0481   15.9711 C   0  0  0  0  0  0  0  0  0  0  0  0
   10.2090    2.5165   15.9607 C   0  0  0  0  0  0  0  0  0  0  0  0
    9.4997    3.3852   16.6127 N   0  0  0  0  0  0  0  0  0  0  0  0
    8.5119    2.9070   17.4391 C   0  0  0  0  0  0  0  0  0  0  0  0
    7.6054    3.5721   18.1529 N   0  0  0  0  0  0  0  0  0  0  0  0
    4.9895    2.2003   20.7675 C   0  0  0  0  0  0  0  0  0  0  0  0
    4.2583    2.4442   22.0107 C   0  0  0  0  0  0  0  0  0  0  0  0
    1.7583    3.0845   25.7866 C   0  0  0  0  0  0  0  0  0  0  0  0
    0.9242    4.1992   25.7219 C   0  0  0  0  0  0  0  0  0  0  0  0
   -0.3552    4.1846   26.3020 C   0  0  0  0  0  0  0  0  0  0  0  0
   -0.8024    3.0310   26.8957 C   0  0  0  0  0  0  0  0  0  0  0  0
    0.0192    1.9565   27.0615 C   0  0  0  0  0  0  0  0  0  0  0  0
    1.3270    1.9910   26.6069 C   0  0  0  0  0  0  0  0  0  0  0  0
   -0.6420    0.8895   27.5814 O   0  0  0  0  0  0  0  0  0  0  0  0
   -1.9954    1.3932   27.5959 C   0  0  0  0  0  0  0  0  0  0  0  0
   -2.0708    2.7984   27.3065 O   0  0  0  0  0  0  0  0  0  0  0  0
    2.3291    4.5094   23.6174 H   0  0  0  0  0  0  0  0  0  0  0  0
    3.9130    5.6798   21.6424 H   0  0  0  0  0  0  0  0  0  0  0  0
    5.4588    5.2665   19.7097 H   0  0  0  0  0  0  0  0  0  0  0  0
    6.9254    0.4120   18.7728 H   0  0  0  0  0  0  0  0  0  0  0  0
    8.6984   -0.3889   16.7527 H   0  0  0  0  0  0  0  0  0  0  0  0
   10.5745    0.4191   15.2927 H   0  0  0  0  0  0  0  0  0  0  0  0
   11.0172    2.8788   15.3040 H   0  0  0  0  0  0  0  0  0  0  0  0
    5.2794    1.2017   20.5096 H   0  0  0  0  0  0  0  0  0  0  0  0
    4.1961    1.6557   22.7285 H   0  0  0  0  0  0  0  0  0  0  0  0
    1.2148    5.0947   25.1820 H   0  0  0  0  0  0  0  0  0  0  0  0
   -1.0215    5.0379   26.2034 H   0  0  0  0  0  0  0  0  0  0  0  0
    1.9549    1.1096   26.7245 H   0  0  0  0  0  0  0  0  0  0  0  0
   -2.4083    1.2124   28.5908 H   0  0  0  0  0  0  0  0  0  0  0  0
   -2.5870    0.8410   26.8561 H   0  0  0  0  0  0  0  0  0  0  0  0
  1  2  2  0
  2  3  1  0
  3  4  1  0
  4  5  2  0
  5  6  1  0
  6  7  2  0
  7  8  1  0
  8  9  2  0
  9 10  1  0
 10 11  1  0
 11 12  2  0
 12 13  1  0
 13 14  2  0
 14 15  1  0
 15 16  2  0
  7 17  1  0
 17 18  2  0
  2 19  1  0
 19 20  2  0
 20 21  1  0
 21 22  2  0
 22 23  1  0
 23 24  2  0
 23 25  1  0
 25 26  1  0
 26 27  1  0
 18  4  1  0
 24 19  1  0
 16  8  1  0
 27 22  1  0
 15 10  1  0
  3 28  1  0
  5 29  1  0
  6 30  1  0
  9 31  1  0
 11 32  1  0
 12 33  1  0
 13 34  1  0
 17 35  1  0
 18 36  1  0
 20 37  1  0
 21 38  1  0
 24 39  1  0
 26 40  1  0
 26 41  1  0
M  END
>  <Energy>  (629) 
131.44101319266707

>  <compound_id>  (629) 
69618

>  <target_id>  (629) 
1

>  <reference_id>  (629) 
13

>  <inspiration_ids>  (629) 
[106, 13]

>  <energy_score>  (629) 
32.4506106009419

>  <distance_score>  (629) 
6.8915187571305445

>  <path>  (629) 
/opt/xchem-fragalysis-2/maxwin/BulkDock/SCRATCH/511015/C69618-P13/C69618-P13.minimised.mol

>  <scratch_subdir>  (629) 
/opt/xchem-fragalysis-2/maxwin/BulkDock/SCRATCH/511015/C69618-P13

>  <fragmenstein_runtime>  (629) 
7.4837281703948975

>  <fragmenstein_outcome>  (629) 
too moved

>  <fragmenstein_mode>  (629) 
expansion

>  <fragmenstein_error>  (629) 


$$$$
C69626-P106
     RDKit          3D

 34 37  0  0  0  0  0  0  0  0999 V2000
    5.6238   -2.2669   24.1005 C   0  0  0  0  0  0  0  0  0  0  0  0
    6.0170   -1.4117   22.5295 N   0  0  0  0  0  0  0  0  0  0  0  0
    7.2375   -1.9337   20.9321 C   0  0  0  0  0  0  0  0  0  0  0  0
    7.6280   -3.1190   21.1694 O   0  0  0  0  0  0  0  0  0  0  0  0
    8.4406   -1.3192   19.3056 C   0  0  0  0  0  0  0  0  0  0  0  0
    9.9780   -2.5776   19.9814 C   0  0  0  0  0  0  0  0  0  0  0  0
   11.5529   -2.6280   18.5405 N   0  0  0  0  0  0  0  0  0  0  0  0
   12.8393   -3.1867   18.3548 C   0  0  0  0  0  0  0  0  0  0  0  0
   13.3700   -3.0949   17.1237 C   0  0  0  0  0  0  0  0  0  0  0  0
   12.6420   -2.4414   15.9603 C   0  0  0  0  0  0  0  0  0  0  0  0
   11.4496   -1.9367   15.8434 N   0  0  0  0  0  0  0  0  0  0  0  0
   10.6825   -1.9663   16.9546 C   0  0  0  0  0  0  0  0  0  0  0  0
    8.9855   -1.4622   17.3030 N   0  0  0  0  0  0  0  0  0  0  0  0
    4.3429   -1.5583   22.8673 C   0  0  0  0  0  0  0  0  0  0  0  0
    3.4637   -2.5844   23.5200 C   0  0  0  0  0  0  0  0  0  0  0  0
    3.2056   -2.9458   25.0909 C   0  0  0  0  0  0  0  0  0  0  0  0
    3.2513   -2.1466   26.1919 C   0  0  0  0  0  0  0  0  0  0  0  0
    3.5988   -0.9404   25.8587 C   0  0  0  0  0  0  0  0  0  0  0  0
    4.0572   -0.8013   24.5176 C   0  0  0  0  0  0  0  0  0  0  0  0
    3.4231   -0.0249   26.8339 O   0  0  0  0  0  0  0  0  0  0  0  0
    2.8355   -0.8829   27.8421 C   0  0  0  0  0  0  0  0  0  0  0  0
    2.7676   -2.2704   27.4361 O   0  0  0  0  0  0  0  0  0  0  0  0
    6.0341   -1.7338   24.9872 H   0  0  0  0  0  0  0  0  0  0  0  0
    6.3664   -3.1063   24.0535 H   0  0  0  0  0  0  0  0  0  0  0  0
    5.0236   -3.0201   24.5337 H   0  0  0  0  0  0  0  0  0  0  0  0
   10.6864   -3.2102   20.7834 H   0  0  0  0  0  0  0  0  0  0  0  0
   13.2950   -3.6729   19.2051 H   0  0  0  0  0  0  0  0  0  0  0  0
   14.3393   -3.5215   16.8903 H   0  0  0  0  0  0  0  0  0  0  0  0
   13.2620   -2.4059   15.0467 H   0  0  0  0  0  0  0  0  0  0  0  0
    2.7772   -3.1679   22.8955 H   0  0  0  0  0  0  0  0  0  0  0  0
    2.7081   -3.8599   25.2368 H   0  0  0  0  0  0  0  0  0  0  0  0
    4.1689    0.2579   24.5126 H   0  0  0  0  0  0  0  0  0  0  0  0
    3.4382   -0.8138   28.7551 H   0  0  0  0  0  0  0  0  0  0  0  0
    1.8205   -0.5283   28.0588 H   0  0  0  0  0  0  0  0  0  0  0  0
  1  2  1  0
  2  3  1  0
  3  4  2  0
  3  5  1  0
  5  6  2  0
  6  7  1  0
  7  8  1  0
  8  9  2  0
  9 10  1  0
 10 11  2  0
 11 12  1  0
 12 13  2  0
  2 14  1  0
 14 15  2  0
 15 16  1  0
 16 17  2  0
 17 18  1  0
 18 19  2  0
 18 20  1  0
 20 21  1  0
 21 22  1  0
 13  5  1  0
 19 14  1  0
 12  7  1  0
 22 17  1  0
  1 23  1  0
  1 24  1  0
  1 25  1  0
  6 26  1  0
  8 27  1  0
  9 28  1  0
 10 29  1  0
 15 30  1  0
 16 31  1  0
 19 32  1  0
 21 33  1  0
 21 34  1  0
M  END
>  <Energy>  (630) 
1657.4919616316238

>  <compound_id>  (630) 
69626

>  <target_id>  (630) 
1

>  <reference_id>  (630) 
106

>  <inspiration_ids>  (630) 
[106, 13]

>  <energy_score>  (630) 
1525.5166368041664

>  <distance_score>  (630) 
4.931298714398343

>  <path>  (630) 
/opt/xchem-fragalysis-2/maxwin/BulkDock/SCRATCH/511015/C69626-P106/C69626-P106.minimised.mol

>  <scratch_subdir>  (630) 
/opt/xchem-fragalysis-2/maxwin/BulkDock/SCRATCH/511015/C69626-P106

>  <fragmenstein_runtime>  (630) 
5.818479776382446

>  <fragmenstein_outcome>  (630) 
too moved

>  <fragmenstein_mode>  (630) 
expansion

>  <fragmenstein_error>  (630) 


$$$$
C69626-P13
     RDKit          3D

 34 37  0  0  0  0  0  0  0  0999 V2000
    6.3026   -4.4982   19.9024 C   0  0  0  0  0  0  0  0  0  0  0  0
    7.6872   -4.5793   21.0960 N   0  0  0  0  0  0  0  0  0  0  0  0
    9.5395   -5.0617   20.5666 C   0  0  0  0  0  0  0  0  0  0  0  0
    9.9972   -5.2536   19.4995 O   0  0  0  0  0  0  0  0  0  0  0  0
   10.8053   -5.1156   21.7128 C   0  0  0  0  0  0  0  0  0  0  0  0
   11.4580   -4.0185   22.2970 C   0  0  0  0  0  0  0  0  0  0  0  0
   12.7370   -4.0499   21.8090 N   0  0  0  0  0  0  0  0  0  0  0  0
   13.6997   -3.0496   21.7534 C   0  0  0  0  0  0  0  0  0  0  0  0
   14.8563   -3.2889   21.1225 C   0  0  0  0  0  0  0  0  0  0  0  0
   14.9955   -4.6781   20.6026 C   0  0  0  0  0  0  0  0  0  0  0  0
   14.1289   -5.6368   20.7163 N   0  0  0  0  0  0  0  0  0  0  0  0
   12.9344   -5.3130   21.2889 C   0  0  0  0  0  0  0  0  0  0  0  0
   11.8308   -6.0288   21.4282 N   0  0  0  0  0  0  0  0  0  0  0  0
    6.9453   -3.1529   21.3407 C   0  0  0  0  0  0  0  0  0  0  0  0
    6.4289   -3.7966   22.9629 C   0  0  0  0  0  0  0  0  0  0  0  0
    5.6489   -3.6718   24.4783 C   0  0  0  0  0  0  0  0  0  0  0  0
    5.0163   -2.5228   24.5949 C   0  0  0  0  0  0  0  0  0  0  0  0
    4.8862   -2.0028   23.2873 C   0  0  0  0  0  0  0  0  0  0  0  0
    5.4848   -2.7067   21.6941 C   0  0  0  0  0  0  0  0  0  0  0  0
    4.7296   -0.6626   23.6099 O   0  0  0  0  0  0  0  0  0  0  0  0
    4.4971   -0.5656   25.0338 C   0  0  0  0  0  0  0  0  0  0  0  0
    4.6000   -1.8390   25.6535 O   0  0  0  0  0  0  0  0  0  0  0  0
    6.7769   -4.4016   18.9656 H   0  0  0  0  0  0  0  0  0  0  0  0
    5.3860   -3.9072   19.8017 H   0  0  0  0  0  0  0  0  0  0  0  0
    6.3865   -5.4846   19.4592 H   0  0  0  0  0  0  0  0  0  0  0  0
   11.0986   -3.1297   22.7736 H   0  0  0  0  0  0  0  0  0  0  0  0
   13.4566   -2.0977   22.2072 H   0  0  0  0  0  0  0  0  0  0  0  0
   15.6635   -2.5818   21.0086 H   0  0  0  0  0  0  0  0  0  0  0  0
   15.9569   -4.8951   20.1079 H   0  0  0  0  0  0  0  0  0  0  0  0
    6.7106   -4.8754   23.0861 H   0  0  0  0  0  0  0  0  0  0  0  0
    5.8105   -4.4380   25.2233 H   0  0  0  0  0  0  0  0  0  0  0  0
    5.4073   -2.0641   20.8244 H   0  0  0  0  0  0  0  0  0  0  0  0
    5.2530    0.1009   25.4658 H   0  0  0  0  0  0  0  0  0  0  0  0
    3.5167   -0.1226   25.2346 H   0  0  0  0  0  0  0  0  0  0  0  0
  1  2  1  0
  2  3  1  0
  3  4  2  0
  3  5  1  0
  5  6  2  0
  6  7  1  0
  7  8  1  0
  8  9  2  0
  9 10  1  0
 10 11  2  0
 11 12  1  0
 12 13  2  0
  2 14  1  0
 14 15  2  0
 15 16  1  0
 16 17  2  0
 17 18  1  0
 18 19  2  0
 18 20  1  0
 20 21  1  0
 21 22  1  0
 13  5  1  0
 19 14  1  0
 12  7  1  0
 22 17  1  0
  1 23  1  0
  1 24  1  0
  1 25  1  0
  6 26  1  0
  8 27  1  0
  9 28  1  0
 10 29  1  0
 15 30  1  0
 16 31  1  0
 19 32  1  0
 21 33  1  0
 21 34  1  0
M  END
>  <Energy>  (631) 
688.51617766657148

>  <compound_id>  (631) 
69626

>  <target_id>  (631) 
1

>  <reference_id>  (631) 
13

>  <inspiration_ids>  (631) 
[106, 13]

>  <energy_score>  (631) 
556.5408528390916

>  <distance_score>  (631) 
7.547713724944386

>  <path>  (631) 
/opt/xchem-fragalysis-2/maxwin/BulkDock/SCRATCH/511015/C69626-P13/C69626-P13.minimised.mol

>  <scratch_subdir>  (631) 
/opt/xchem-fragalysis-2/maxwin/BulkDock/SCRATCH/511015/C69626-P13

>  <fragmenstein_runtime>  (631) 
6.798471689224243

>  <fragmenstein_outcome>  (631) 
too moved

>  <fragmenstein_mode>  (631) 
expansion

>  <fragmenstein_error>  (631) 


$$$$
C18892-P106
     RDKit          3D

 34 37  0  0  0  0  0  0  0  0999 V2000
    8.4690   -1.1282   19.6749 C   0  0  0  0  0  0  0  0  0  0  0  0
    9.1229   -3.1342   20.1928 N   0  0  0  0  0  0  0  0  0  0  0  0
   11.0013   -3.3854   20.9533 C   0  0  0  0  0  0  0  0  0  0  0  0
   11.3456   -3.3844   22.1514 O   0  0  0  0  0  0  0  0  0  0  0  0
   12.4896   -3.5001   19.9114 C   0  0  0  0  0  0  0  0  0  0  0  0
   12.8424   -4.7700   19.2469 C   0  0  0  0  0  0  0  0  0  0  0  0
   13.6368   -4.6559   18.1754 C   0  0  0  0  0  0  0  0  0  0  0  0
   14.3014   -3.4731   17.9569 N   0  0  0  0  0  0  0  0  0  0  0  0
   15.1052   -3.0790   16.9259 C   0  0  0  0  0  0  0  0  0  0  0  0
   15.4737   -1.7946   17.2427 C   0  0  0  0  0  0  0  0  0  0  0  0
   14.9308   -1.4092   18.4423 N   0  0  0  0  0  0  0  0  0  0  0  0
   14.2387   -2.4442   18.8770 C   0  0  0  0  0  0  0  0  0  0  0  0
   13.3870   -2.5308   19.9461 N   0  0  0  0  0  0  0  0  0  0  0  0
    7.4737   -3.0048   21.1378 C   0  0  0  0  0  0  0  0  0  0  0  0
    6.1448   -3.1261   20.7360 C   0  0  0  0  0  0  0  0  0  0  0  0
    5.3436   -2.9148   21.6669 C   0  0  0  0  0  0  0  0  0  0  0  0
    5.4359   -2.1450   22.7242 C   0  0  0  0  0  0  0  0  0  0  0  0
    5.6011   -1.1751   21.9525 C   0  0  0  0  0  0  0  0  0  0  0  0
    6.7045   -1.4203   21.0098 C   0  0  0  0  0  0  0  0  0  0  0  0
    4.7545   -0.3493   22.3829 O   0  0  0  0  0  0  0  0  0  0  0  0
    4.1882   -1.3819   23.8655 C   0  0  0  0  0  0  0  0  0  0  0  0
    5.1770   -2.2505   24.0145 O   0  0  0  0  0  0  0  0  0  0  0  0
    8.5470   -0.4470   20.5393 H   0  0  0  0  0  0  0  0  0  0  0  0
    8.4565   -0.6640   18.6907 H   0  0  0  0  0  0  0  0  0  0  0  0
    7.4540   -1.0965   19.2609 H   0  0  0  0  0  0  0  0  0  0  0  0
   12.3421   -5.6220   19.6449 H   0  0  0  0  0  0  0  0  0  0  0  0
   13.8164   -5.4400   17.4675 H   0  0  0  0  0  0  0  0  0  0  0  0
   15.3298   -3.7177   16.0840 H   0  0  0  0  0  0  0  0  0  0  0  0
   16.1045   -1.1242   16.6733 H   0  0  0  0  0  0  0  0  0  0  0  0
    5.7354   -3.7068   19.8929 H   0  0  0  0  0  0  0  0  0  0  0  0
    4.5316   -3.5524   21.2428 H   0  0  0  0  0  0  0  0  0  0  0  0
    6.8484   -0.4577   20.5141 H   0  0  0  0  0  0  0  0  0  0  0  0
    4.0585   -0.6927   24.7284 H   0  0  0  0  0  0  0  0  0  0  0  0
    3.2928   -1.9884   23.6350 H   0  0  0  0  0  0  0  0  0  0  0  0
  1  2  1  0
  2  3  1  0
  3  4  2  0
  3  5  1  0
  5  6  1  0
  6  7  2  0
  7  8  1  0
  8  9  1  0
  9 10  2  0
 10 11  1  0
 11 12  2  0
 12 13  1  0
  2 14  1  0
 14 15  2  0
 15 16  1  0
 16 17  2  0
 17 18  1  0
 18 19  2  0
 18 20  1  0
 20 21  1  0
 21 22  1  0
 13  5  2  0
 19 14  1  0
 12  8  1  0
 22 17  1  0
  1 23  1  0
  1 24  1  0
  1 25  1  0
  6 26  1  0
  7 27  1  0
  9 28  1  0
 10 29  1  0
 15 30  1  0
 16 31  1  0
 19 32  1  0
 21 33  1  0
 21 34  1  0
M  END
>  <Energy>  (632) 
997.81245810848691

>  <compound_id>  (632) 
18892

>  <target_id>  (632) 
1

>  <reference_id>  (632) 
106

>  <inspiration_ids>  (632) 
[106, 13]

>  <energy_score>  (632) 
864.664807371286

>  <distance_score>  (632) 
7.2923675474756955

>  <path>  (632) 
/opt/xchem-fragalysis-2/maxwin/BulkDock/SCRATCH/511015/C18892-P106/C18892-P106.minimised.mol

>  <scratch_subdir>  (632) 
/opt/xchem-fragalysis-2/maxwin/BulkDock/SCRATCH/511015/C18892-P106

>  <fragmenstein_runtime>  (632) 
8.815768957138062

>  <fragmenstein_outcome>  (632) 
too moved

>  <fragmenstein_mode>  (632) 
expansion

>  <fragmenstein_error>  (632) 


$$$$
C18892-P13
     RDKit          3D

 34 37  0  0  0  0  0  0  0  0999 V2000
    7.2018   -0.0841   19.0011 C   0  0  0  0  0  0  0  0  0  0  0  0
    7.2381    1.1663   19.5076 N   0  0  0  0  0  0  0  0  0  0  0  0
    8.8734    1.5688   20.0014 C   0  0  0  0  0  0  0  0  0  0  0  0
    9.3047    1.3673   21.1254 O   0  0  0  0  0  0  0  0  0  0  0  0
   10.3666    2.2147   18.8133 C   0  0  0  0  0  0  0  0  0  0  0  0
   12.2906    2.3299   19.8634 C   0  0  0  0  0  0  0  0  0  0  0  0
   13.8336    1.5159   19.2805 C   0  0  0  0  0  0  0  0  0  0  0  0
   13.9017    0.5561   17.5187 N   0  0  0  0  0  0  0  0  0  0  0  0
   14.6716   -0.2048   16.6796 C   0  0  0  0  0  0  0  0  0  0  0  0
   13.9029   -0.4511   15.5322 C   0  0  0  0  0  0  0  0  0  0  0  0
   12.5803    0.0914   15.4089 N   0  0  0  0  0  0  0  0  0  0  0  0
   12.3113    0.8624   16.4530 C   0  0  0  0  0  0  0  0  0  0  0  0
   10.7040    1.4876   17.2494 N   0  0  0  0  0  0  0  0  0  0  0  0
    5.7073    0.4746   20.5295 C   0  0  0  0  0  0  0  0  0  0  0  0
    5.2221   -0.8498   21.4668 C   0  0  0  0  0  0  0  0  0  0  0  0
    4.7780   -0.9831   23.1778 C   0  0  0  0  0  0  0  0  0  0  0  0
    4.6961    0.2007   24.0400 C   0  0  0  0  0  0  0  0  0  0  0  0
    4.4850    1.3539   23.2508 C   0  0  0  0  0  0  0  0  0  0  0  0
    4.4488    1.0808   21.5817 C   0  0  0  0  0  0  0  0  0  0  0  0
    3.7293    2.2743   23.9479 O   0  0  0  0  0  0  0  0  0  0  0  0
    3.8277    1.7134   25.2839 C   0  0  0  0  0  0  0  0  0  0  0  0
    4.2674    0.3302   25.3155 O   0  0  0  0  0  0  0  0  0  0  0  0
    7.3603   -0.7678   19.7880 H   0  0  0  0  0  0  0  0  0  0  0  0
    8.1365   -0.0370   18.4341 H   0  0  0  0  0  0  0  0  0  0  0  0
    6.4636   -0.1326   18.1926 H   0  0  0  0  0  0  0  0  0  0  0  0
   12.1853    2.8902   20.7972 H   0  0  0  0  0  0  0  0  0  0  0  0
   14.7851    1.4893   19.8009 H   0  0  0  0  0  0  0  0  0  0  0  0
   15.6646   -0.5214   16.9583 H   0  0  0  0  0  0  0  0  0  0  0  0
   14.2501   -1.0618   14.7045 H   0  0  0  0  0  0  0  0  0  0  0  0
    5.4962   -1.8762   20.9591 H   0  0  0  0  0  0  0  0  0  0  0  0
    4.6535   -1.9465   23.6351 H   0  0  0  0  0  0  0  0  0  0  0  0
    3.4166    1.2943   21.2619 H   0  0  0  0  0  0  0  0  0  0  0  0
    2.8462    1.7794   25.7632 H   0  0  0  0  0  0  0  0  0  0  0  0
    4.5340    2.3187   25.8665 H   0  0  0  0  0  0  0  0  0  0  0  0
  1  2  1  0
  2  3  1  0
  3  4  2  0
  3  5  1  0
  5  6  1  0
  6  7  2  0
  7  8  1  0
  8  9  1  0
  9 10  2  0
 10 11  1  0
 11 12  2  0
 12 13  1  0
  2 14  1  0
 14 15  2  0
 15 16  1  0
 16 17  2  0
 17 18  1  0
 18 19  2  0
 18 20  1  0
 20 21  1  0
 21 22  1  0
 13  5  2  0
 19 14  1  0
 12  8  1  0
 22 17  1  0
  1 23  1  0
  1 24  1  0
  1 25  1  0
  6 26  1  0
  7 27  1  0
  9 28  1  0
 10 29  1  0
 15 30  1  0
 16 31  1  0
 19 32  1  0
 21 33  1  0
 21 34  1  0
M  END
>  <Energy>  (633) 
1286.085102111168

>  <compound_id>  (633) 
18892

>  <target_id>  (633) 
1

>  <reference_id>  (633) 
13

>  <inspiration_ids>  (633) 
[106, 13]

>  <energy_score>  (633) 
1152.9374513739617

>  <distance_score>  (633) 
5.912068292105873

>  <path>  (633) 
/opt/xchem-fragalysis-2/maxwin/BulkDock/SCRATCH/511015/C18892-P13/C18892-P13.minimised.mol

>  <scratch_subdir>  (633) 
/opt/xchem-fragalysis-2/maxwin/BulkDock/SCRATCH/511015/C18892-P13

>  <fragmenstein_runtime>  (633) 
5.73491907119751

>  <fragmenstein_outcome>  (633) 
too moved

>  <fragmenstein_mode>  (633) 
expansion

>  <fragmenstein_error>  (633) 


$$$$
C69633-P106
     RDKit          3D

 48 51  0  0  0  0  0  0  0  0999 V2000
   -1.9964    0.4231   30.9699 C   0  0  0  0  0  0  0  0  0  0  0  0
   -0.5626    0.6291   30.5416 C   0  0  0  0  0  0  0  0  0  0  0  0
   -0.1928   -0.1173   28.9578 S   0  0  0  0  0  0  0  0  0  0  0  0
    1.2377   -0.0429   28.7747 O   0  0  0  0  0  0  0  0  0  0  0  0
   -0.9019   -1.3767   28.9005 O   0  0  0  0  0  0  0  0  0  0  0  0
   -0.9095    0.8928   27.8318 N   0  0  0  0  0  0  0  0  0  0  0  0
   -0.5291    2.3075   27.6658 C   0  0  0  0  0  0  0  0  0  0  0  0
   -0.0334    2.6816   26.2820 C   0  0  0  0  0  0  0  0  0  0  0  0
   -0.7580    3.4327   25.3371 C   0  0  0  0  0  0  0  0  0  0  0  0
   -0.3555    3.7194   24.0358 N   0  0  0  0  0  0  0  0  0  0  0  0
    0.8396    3.2409   23.6710 C   0  0  0  0  0  0  0  0  0  0  0  0
    1.5556    2.4676   24.5090 C   0  0  0  0  0  0  0  0  0  0  0  0
    1.2100    2.2424   25.8557 C   0  0  0  0  0  0  0  0  0  0  0  0
    2.7744    1.5555   23.6270 C   0  0  0  0  0  0  0  0  0  0  0  0
    4.0577    1.3883   22.0360 N   0  0  0  0  0  0  0  0  0  0  0  0
    5.1939   -0.1440   21.7619 C   0  0  0  0  0  0  0  0  0  0  0  0
    5.2418   -1.1779   22.3256 O   0  0  0  0  0  0  0  0  0  0  0  0
    6.7437   -0.0512   20.3803 C   0  0  0  0  0  0  0  0  0  0  0  0
    7.0820   -0.4857   19.0121 C   0  0  0  0  0  0  0  0  0  0  0  0
    7.8708    0.3022   17.9879 N   0  0  0  0  0  0  0  0  0  0  0  0
    8.4481    0.0758   16.7126 C   0  0  0  0  0  0  0  0  0  0  0  0
    9.0067    1.0918   16.0429 C   0  0  0  0  0  0  0  0  0  0  0  0
    8.7192    2.4403   16.5916 C   0  0  0  0  0  0  0  0  0  0  0  0
    8.0696    2.7207   17.6782 N   0  0  0  0  0  0  0  0  0  0  0  0
    7.7260    1.6424   18.4913 C   0  0  0  0  0  0  0  0  0  0  0  0
    7.4549    1.4401   19.8827 N   0  0  0  0  0  0  0  0  0  0  0  0
    2.9231    1.7390   22.8278 C   0  0  0  0  0  0  0  0  0  0  0  0
    1.6035    3.1183   22.3776 C   0  0  0  0  0  0  0  0  0  0  0  0
   -2.2225   -0.6395   31.1024 H   0  0  0  0  0  0  0  0  0  0  0  0
   -2.6825    0.8230   30.2206 H   0  0  0  0  0  0  0  0  0  0  0  0
   -2.1863    0.9250   31.9231 H   0  0  0  0  0  0  0  0  0  0  0  0
    0.1090    0.1571   31.2667 H   0  0  0  0  0  0  0  0  0  0  0  0
   -0.3017    1.6892   30.4920 H   0  0  0  0  0  0  0  0  0  0  0  0
   -1.8064    0.5773   27.4663 H   0  0  0  0  0  0  0  0  0  0  0  0
    0.2469    2.5859   28.3881 H   0  0  0  0  0  0  0  0  0  0  0  0
   -1.4057    2.9187   27.9094 H   0  0  0  0  0  0  0  0  0  0  0  0
   -1.7371    3.8427   25.5860 H   0  0  0  0  0  0  0  0  0  0  0  0
    1.8347    1.6210   26.4962 H   0  0  0  0  0  0  0  0  0  0  0  0
    3.0912    0.7925   24.5091 H   0  0  0  0  0  0  0  0  0  0  0  0
    3.1805    2.5662   24.3591 H   0  0  0  0  0  0  0  0  0  0  0  0
    6.3564   -0.9714   18.3738 H   0  0  0  0  0  0  0  0  0  0  0  0
    8.4356   -0.9108   16.2713 H   0  0  0  0  0  0  0  0  0  0  0  0
    9.4662    0.9948   15.0686 H   0  0  0  0  0  0  0  0  0  0  0  0
    9.0613    3.2771   15.9601 H   0  0  0  0  0  0  0  0  0  0  0  0
    2.4446    1.4352   21.7735 H   0  0  0  0  0  0  0  0  0  0  0  0
    3.3653    2.8694   22.5771 H   0  0  0  0  0  0  0  0  0  0  0  0
    2.0963    4.0678   22.1189 H   0  0  0  0  0  0  0  0  0  0  0  0
    0.9775    2.7966   21.5437 H   0  0  0  0  0  0  0  0  0  0  0  0
  1  2  1  0
  2  3  1  0
  3  4  2  0
  3  5  2  0
  3  6  1  0
  6  7  1  0
  7  8  1  0
  8  9  2  0
  9 10  1  0
 10 11  2  0
 11 12  1  0
 12 13  2  0
 12 14  1  0
 14 15  1  0
 15 16  1  0
 16 17  2  0
 16 18  1  0
 18 19  2  0
 19 20  1  0
 20 21  1  0
 21 22  2  0
 22 23  1  0
 23 24  2  0
 24 25  1  0
 25 26  2  0
 15 27  1  0
 27 28  1  0
 13  8  1  0
 26 18  1  0
 28 11  1  0
 25 20  1  0
  1 29  1  0
  1 30  1  0
  1 31  1  0
  2 32  1  0
  2 33  1  0
  6 34  1  0
  7 35  1  0
  7 36  1  0
  9 37  1  0
 13 38  1  0
 14 39  1  0
 14 40  1  0
 19 41  1  0
 21 42  1  0
 22 43  1  0
 23 44  1  0
 27 45  1  0
 27 46  1  0
 28 47  1  0
 28 48  1  0
M  END
>  <Energy>  (634) 
1137.6054825859185

>  <compound_id>  (634) 
69633

>  <target_id>  (634) 
1

>  <reference_id>  (634) 
106

>  <inspiration_ids>  (634) 
[106, 13]

>  <energy_score>  (634) 
1090.7603699427648

>  <distance_score>  (634) 
5.273575352463369

>  <path>  (634) 
/opt/xchem-fragalysis-2/maxwin/BulkDock/SCRATCH/511015/C69633-P106/C69633-P106.minimised.mol

>  <scratch_subdir>  (634) 
/opt/xchem-fragalysis-2/maxwin/BulkDock/SCRATCH/511015/C69633-P106

>  <fragmenstein_runtime>  (634) 
10.889028072357178

>  <fragmenstein_outcome>  (634) 
too moved

>  <fragmenstein_mode>  (634) 
expansion

>  <fragmenstein_error>  (634) 


$$$$
C69633-P13
     RDKit          3D

 48 51  0  0  0  0  0  0  0  0999 V2000
   -0.8552   -0.0054   32.8398 C   0  0  0  0  0  0  0  0  0  0  0  0
   -0.0990   -1.2762   32.5116 C   0  0  0  0  0  0  0  0  0  0  0  0
   -0.2389   -1.7452   30.7957 S   0  0  0  0  0  0  0  0  0  0  0  0
    0.5067   -2.9700   30.6132 O   0  0  0  0  0  0  0  0  0  0  0  0
   -1.6265   -1.6319   30.4098 O   0  0  0  0  0  0  0  0  0  0  0  0
    0.6073   -0.4908   30.0332 N   0  0  0  0  0  0  0  0  0  0  0  0
    0.9050   -0.7272   28.6025 C   0  0  0  0  0  0  0  0  0  0  0  0
    2.1321    0.0236   28.1196 C   0  0  0  0  0  0  0  0  0  0  0  0
    3.4013   -0.2914   28.6303 C   0  0  0  0  0  0  0  0  0  0  0  0
    4.5869    0.1207   28.0930 N   0  0  0  0  0  0  0  0  0  0  0  0
    4.4775    0.8379   26.9727 C   0  0  0  0  0  0  0  0  0  0  0  0
    3.2929    1.2142   26.4147 C   0  0  0  0  0  0  0  0  0  0  0  0
    2.0812    0.8961   27.0217 C   0  0  0  0  0  0  0  0  0  0  0  0
    3.7202    1.7291   24.7475 C   0  0  0  0  0  0  0  0  0  0  0  0
    4.6540    1.1621   23.1279 N   0  0  0  0  0  0  0  0  0  0  0  0
    4.9715   -0.4514   22.2339 C   0  0  0  0  0  0  0  0  0  0  0  0
    4.7476   -1.5388   22.5248 O   0  0  0  0  0  0  0  0  0  0  0  0
    6.0429    0.2235   20.5361 C   0  0  0  0  0  0  0  0  0  0  0  0
    7.1005   -0.1562   19.5090 C   0  0  0  0  0  0  0  0  0  0  0  0
    7.7255    0.7799   18.6189 N   0  0  0  0  0  0  0  0  0  0  0  0
    8.3838    0.6852   17.3740 C   0  0  0  0  0  0  0  0  0  0  0  0
    9.0328    1.7465   16.8726 C   0  0  0  0  0  0  0  0  0  0  0  0
    9.0100    2.9538   17.7379 C   0  0  0  0  0  0  0  0  0  0  0  0
    8.4584    3.0406   18.9069 N   0  0  0  0  0  0  0  0  0  0  0  0
    7.8018    1.9260   19.3223 C   0  0  0  0  0  0  0  0  0  0  0  0
    7.0960    1.6760   20.3935 N   0  0  0  0  0  0  0  0  0  0  0  0
    4.1723    1.1547   24.4575 C   0  0  0  0  0  0  0  0  0  0  0  0
    5.4631    1.0921   25.8861 C   0  0  0  0  0  0  0  0  0  0  0  0
   -0.4591    0.8488   32.2834 H   0  0  0  0  0  0  0  0  0  0  0  0
   -0.7678    0.2202   33.9072 H   0  0  0  0  0  0  0  0  0  0  0  0
   -1.9191   -0.1004   32.6014 H   0  0  0  0  0  0  0  0  0  0  0  0
   -0.5017   -2.1116   33.0939 H   0  0  0  0  0  0  0  0  0  0  0  0
    0.9656   -1.1816   32.7458 H   0  0  0  0  0  0  0  0  0  0  0  0
    0.1008    0.3914   30.1219 H   0  0  0  0  0  0  0  0  0  0  0  0
    0.0284   -0.4224   28.0182 H   0  0  0  0  0  0  0  0  0  0  0  0
    1.0771   -1.7905   28.4004 H   0  0  0  0  0  0  0  0  0  0  0  0
    3.5042   -0.9595   29.4835 H   0  0  0  0  0  0  0  0  0  0  0  0
    1.1238    1.2031   26.6251 H   0  0  0  0  0  0  0  0  0  0  0  0
    4.0702    2.8938   24.9252 H   0  0  0  0  0  0  0  0  0  0  0  0
    2.6354    2.1039   24.3446 H   0  0  0  0  0  0  0  0  0  0  0  0
    7.7310   -0.9441   19.5432 H   0  0  0  0  0  0  0  0  0  0  0  0
    8.2894   -0.2074   16.7786 H   0  0  0  0  0  0  0  0  0  0  0  0
    9.5169    1.7835   15.9084 H   0  0  0  0  0  0  0  0  0  0  0  0
    9.5243    3.8373   17.3247 H   0  0  0  0  0  0  0  0  0  0  0  0
    3.4087    0.0531   24.6580 H   0  0  0  0  0  0  0  0  0  0  0  0
    4.7838    0.1330   24.4027 H   0  0  0  0  0  0  0  0  0  0  0  0
    5.9526    2.0696   25.9712 H   0  0  0  0  0  0  0  0  0  0  0  0
    6.1692    0.2674   25.7408 H   0  0  0  0  0  0  0  0  0  0  0  0
  1  2  1  0
  2  3  1  0
  3  4  2  0
  3  5  2  0
  3  6  1  0
  6  7  1  0
  7  8  1  0
  8  9  2  0
  9 10  1  0
 10 11  2  0
 11 12  1  0
 12 13  2  0
 12 14  1  0
 14 15  1  0
 15 16  1  0
 16 17  2  0
 16 18  1  0
 18 19  2  0
 19 20  1  0
 20 21  1  0
 21 22  2  0
 22 23  1  0
 23 24  2  0
 24 25  1  0
 25 26  2  0
 15 27  1  0
 27 28  1  0
 13  8  1  0
 26 18  1  0
 28 11  1  0
 25 20  1  0
  1 29  1  0
  1 30  1  0
  1 31  1  0
  2 32  1  0
  2 33  1  0
  6 34  1  0
  7 35  1  0
  7 36  1  0
  9 37  1  0
 13 38  1  0
 14 39  1  0
 14 40  1  0
 19 41  1  0
 21 42  1  0
 22 43  1  0
 23 44  1  0
 27 45  1  0
 27 46  1  0
 28 47  1  0
 28 48  1  0
M  END
>  <Energy>  (635) 
1066.6614685034142

>  <compound_id>  (635) 
69633

>  <target_id>  (635) 
1

>  <reference_id>  (635) 
13

>  <inspiration_ids>  (635) 
[106, 13]

>  <energy_score>  (635) 
1019.8163558602542

>  <distance_score>  (635) 
5.232906535668232

>  <path>  (635) 
/opt/xchem-fragalysis-2/maxwin/BulkDock/SCRATCH/511015/C69633-P13/C69633-P13.minimised.mol

>  <scratch_subdir>  (635) 
/opt/xchem-fragalysis-2/maxwin/BulkDock/SCRATCH/511015/C69633-P13

>  <fragmenstein_runtime>  (635) 
10.360532999038696

>  <fragmenstein_outcome>  (635) 
too moved

>  <fragmenstein_mode>  (635) 
expansion

>  <fragmenstein_error>  (635) 


$$$$
C69633-P106
     RDKit          3D

 48 51  0  0  0  0  0  0  0  0999 V2000
   -1.9964    0.4231   30.9699 C   0  0  0  0  0  0  0  0  0  0  0  0
   -0.5626    0.6291   30.5416 C   0  0  0  0  0  0  0  0  0  0  0  0
   -0.1928   -0.1173   28.9578 S   0  0  0  0  0  0  0  0  0  0  0  0
    1.2377   -0.0429   28.7747 O   0  0  0  0  0  0  0  0  0  0  0  0
   -0.9019   -1.3767   28.9005 O   0  0  0  0  0  0  0  0  0  0  0  0
   -0.9095    0.8928   27.8318 N   0  0  0  0  0  0  0  0  0  0  0  0
   -0.5291    2.3075   27.6658 C   0  0  0  0  0  0  0  0  0  0  0  0
   -0.0334    2.6816   26.2820 C   0  0  0  0  0  0  0  0  0  0  0  0
   -0.7580    3.4327   25.3371 C   0  0  0  0  0  0  0  0  0  0  0  0
   -0.3555    3.7194   24.0358 N   0  0  0  0  0  0  0  0  0  0  0  0
    0.8396    3.2409   23.6710 C   0  0  0  0  0  0  0  0  0  0  0  0
    1.5556    2.4676   24.5090 C   0  0  0  0  0  0  0  0  0  0  0  0
    1.2100    2.2424   25.8557 C   0  0  0  0  0  0  0  0  0  0  0  0
    2.7744    1.5555   23.6270 C   0  0  0  0  0  0  0  0  0  0  0  0
    4.0577    1.3883   22.0360 N   0  0  0  0  0  0  0  0  0  0  0  0
    5.1939   -0.1440   21.7619 C   0  0  0  0  0  0  0  0  0  0  0  0
    5.2418   -1.1779   22.3256 O   0  0  0  0  0  0  0  0  0  0  0  0
    6.7437   -0.0512   20.3803 C   0  0  0  0  0  0  0  0  0  0  0  0
    7.0820   -0.4857   19.0121 C   0  0  0  0  0  0  0  0  0  0  0  0
    7.8708    0.3022   17.9879 N   0  0  0  0  0  0  0  0  0  0  0  0
    8.4481    0.0758   16.7126 C   0  0  0  0  0  0  0  0  0  0  0  0
    9.0067    1.0918   16.0429 C   0  0  0  0  0  0  0  0  0  0  0  0
    8.7192    2.4403   16.5916 C   0  0  0  0  0  0  0  0  0  0  0  0
    8.0696    2.7207   17.6782 N   0  0  0  0  0  0  0  0  0  0  0  0
    7.7260    1.6424   18.4913 C   0  0  0  0  0  0  0  0  0  0  0  0
    7.4549    1.4401   19.8827 N   0  0  0  0  0  0  0  0  0  0  0  0
    2.9231    1.7390   22.8278 C   0  0  0  0  0  0  0  0  0  0  0  0
    1.6035    3.1183   22.3776 C   0  0  0  0  0  0  0  0  0  0  0  0
   -2.2225   -0.6395   31.1024 H   0  0  0  0  0  0  0  0  0  0  0  0
   -2.6825    0.8230   30.2206 H   0  0  0  0  0  0  0  0  0  0  0  0
   -2.1863    0.9250   31.9231 H   0  0  0  0  0  0  0  0  0  0  0  0
    0.1090    0.1571   31.2667 H   0  0  0  0  0  0  0  0  0  0  0  0
   -0.3017    1.6892   30.4920 H   0  0  0  0  0  0  0  0  0  0  0  0
   -1.8064    0.5773   27.4663 H   0  0  0  0  0  0  0  0  0  0  0  0
    0.2469    2.5859   28.3881 H   0  0  0  0  0  0  0  0  0  0  0  0
   -1.4057    2.9187   27.9094 H   0  0  0  0  0  0  0  0  0  0  0  0
   -1.7371    3.8427   25.5860 H   0  0  0  0  0  0  0  0  0  0  0  0
    1.8347    1.6210   26.4962 H   0  0  0  0  0  0  0  0  0  0  0  0
    3.0912    0.7925   24.5091 H   0  0  0  0  0  0  0  0  0  0  0  0
    3.1805    2.5662   24.3591 H   0  0  0  0  0  0  0  0  0  0  0  0
    6.3564   -0.9714   18.3738 H   0  0  0  0  0  0  0  0  0  0  0  0
    8.4356   -0.9108   16.2713 H   0  0  0  0  0  0  0  0  0  0  0  0
    9.4662    0.9948   15.0686 H   0  0  0  0  0  0  0  0  0  0  0  0
    9.0613    3.2771   15.9601 H   0  0  0  0  0  0  0  0  0  0  0  0
    2.4446    1.4352   21.7735 H   0  0  0  0  0  0  0  0  0  0  0  0
    3.3653    2.8694   22.5771 H   0  0  0  0  0  0  0  0  0  0  0  0
    2.0963    4.0678   22.1189 H   0  0  0  0  0  0  0  0  0  0  0  0
    0.9775    2.7966   21.5437 H   0  0  0  0  0  0  0  0  0  0  0  0
  1  2  1  0
  2  3  1  0
  3  4  2  0
  3  5  2  0
  3  6  1  0
  6  7  1  0
  7  8  1  0
  8  9  2  0
  9 10  1  0
 10 11  2  0
 11 12  1  0
 12 13  2  0
 12 14  1  0
 14 15  1  0
 15 16  1  0
 16 17  2  0
 16 18  1  0
 18 19  2  0
 19 20  1  0
 20 21  1  0
 21 22  2  0
 22 23  1  0
 23 24  2  0
 24 25  1  0
 25 26  2  0
 15 27  1  0
 27 28  1  0
 13  8  1  0
 26 18  1  0
 28 11  1  0
 25 20  1  0
  1 29  1  0
  1 30  1  0
  1 31  1  0
  2 32  1  0
  2 33  1  0
  6 34  1  0
  7 35  1  0
  7 36  1  0
  9 37  1  0
 13 38  1  0
 14 39  1  0
 14 40  1  0
 19 41  1  0
 21 42  1  0
 22 43  1  0
 23 44  1  0
 27 45  1  0
 27 46  1  0
 28 47  1  0
 28 48  1  0
M  END
>  <Energy>  (636) 
1137.6054825859185

>  <compound_id>  (636) 
69633

>  <target_id>  (636) 
1

>  <reference_id>  (636) 
106

>  <inspiration_ids>  (636) 
[106, 13]

>  <energy_score>  (636) 
1090.7603699427648

>  <distance_score>  (636) 
5.273575352463369

>  <path>  (636) 
/opt/xchem-fragalysis-2/maxwin/BulkDock/SCRATCH/511015/C69633-P106/C69633-P106.minimised.mol

>  <scratch_subdir>  (636) 
/opt/xchem-fragalysis-2/maxwin/BulkDock/SCRATCH/511015/C69633-P106

>  <fragmenstein_runtime>  (636) 
10.178400754928589

>  <fragmenstein_outcome>  (636) 
too moved

>  <fragmenstein_mode>  (636) 
expansion

>  <fragmenstein_error>  (636) 


$$$$
C69633-P13
     RDKit          3D

 48 51  0  0  0  0  0  0  0  0999 V2000
   -0.8552   -0.0054   32.8398 C   0  0  0  0  0  0  0  0  0  0  0  0
   -0.0990   -1.2762   32.5116 C   0  0  0  0  0  0  0  0  0  0  0  0
   -0.2389   -1.7452   30.7957 S   0  0  0  0  0  0  0  0  0  0  0  0
    0.5067   -2.9700   30.6132 O   0  0  0  0  0  0  0  0  0  0  0  0
   -1.6265   -1.6319   30.4098 O   0  0  0  0  0  0  0  0  0  0  0  0
    0.6073   -0.4908   30.0332 N   0  0  0  0  0  0  0  0  0  0  0  0
    0.9050   -0.7272   28.6025 C   0  0  0  0  0  0  0  0  0  0  0  0
    2.1321    0.0236   28.1196 C   0  0  0  0  0  0  0  0  0  0  0  0
    3.4013   -0.2914   28.6303 C   0  0  0  0  0  0  0  0  0  0  0  0
    4.5869    0.1207   28.0930 N   0  0  0  0  0  0  0  0  0  0  0  0
    4.4775    0.8379   26.9727 C   0  0  0  0  0  0  0  0  0  0  0  0
    3.2929    1.2142   26.4147 C   0  0  0  0  0  0  0  0  0  0  0  0
    2.0812    0.8961   27.0217 C   0  0  0  0  0  0  0  0  0  0  0  0
    3.7202    1.7291   24.7475 C   0  0  0  0  0  0  0  0  0  0  0  0
    4.6540    1.1621   23.1279 N   0  0  0  0  0  0  0  0  0  0  0  0
    4.9715   -0.4514   22.2339 C   0  0  0  0  0  0  0  0  0  0  0  0
    4.7476   -1.5388   22.5248 O   0  0  0  0  0  0  0  0  0  0  0  0
    6.0429    0.2235   20.5361 C   0  0  0  0  0  0  0  0  0  0  0  0
    7.1005   -0.1562   19.5090 C   0  0  0  0  0  0  0  0  0  0  0  0
    7.7255    0.7799   18.6189 N   0  0  0  0  0  0  0  0  0  0  0  0
    8.3838    0.6852   17.3740 C   0  0  0  0  0  0  0  0  0  0  0  0
    9.0328    1.7465   16.8726 C   0  0  0  0  0  0  0  0  0  0  0  0
    9.0100    2.9538   17.7379 C   0  0  0  0  0  0  0  0  0  0  0  0
    8.4584    3.0406   18.9069 N   0  0  0  0  0  0  0  0  0  0  0  0
    7.8018    1.9260   19.3223 C   0  0  0  0  0  0  0  0  0  0  0  0
    7.0960    1.6760   20.3935 N   0  0  0  0  0  0  0  0  0  0  0  0
    4.1723    1.1547   24.4575 C   0  0  0  0  0  0  0  0  0  0  0  0
    5.4631    1.0921   25.8861 C   0  0  0  0  0  0  0  0  0  0  0  0
   -0.4591    0.8488   32.2834 H   0  0  0  0  0  0  0  0  0  0  0  0
   -0.7678    0.2202   33.9072 H   0  0  0  0  0  0  0  0  0  0  0  0
   -1.9191   -0.1004   32.6014 H   0  0  0  0  0  0  0  0  0  0  0  0
   -0.5017   -2.1116   33.0939 H   0  0  0  0  0  0  0  0  0  0  0  0
    0.9656   -1.1816   32.7458 H   0  0  0  0  0  0  0  0  0  0  0  0
    0.1008    0.3914   30.1219 H   0  0  0  0  0  0  0  0  0  0  0  0
    0.0284   -0.4224   28.0182 H   0  0  0  0  0  0  0  0  0  0  0  0
    1.0771   -1.7905   28.4004 H   0  0  0  0  0  0  0  0  0  0  0  0
    3.5042   -0.9595   29.4835 H   0  0  0  0  0  0  0  0  0  0  0  0
    1.1238    1.2031   26.6251 H   0  0  0  0  0  0  0  0  0  0  0  0
    4.0702    2.8938   24.9252 H   0  0  0  0  0  0  0  0  0  0  0  0
    2.6354    2.1039   24.3446 H   0  0  0  0  0  0  0  0  0  0  0  0
    7.7310   -0.9441   19.5432 H   0  0  0  0  0  0  0  0  0  0  0  0
    8.2894   -0.2074   16.7786 H   0  0  0  0  0  0  0  0  0  0  0  0
    9.5169    1.7835   15.9084 H   0  0  0  0  0  0  0  0  0  0  0  0
    9.5243    3.8373   17.3247 H   0  0  0  0  0  0  0  0  0  0  0  0
    3.4087    0.0531   24.6580 H   0  0  0  0  0  0  0  0  0  0  0  0
    4.7838    0.1330   24.4027 H   0  0  0  0  0  0  0  0  0  0  0  0
    5.9526    2.0696   25.9712 H   0  0  0  0  0  0  0  0  0  0  0  0
    6.1692    0.2674   25.7408 H   0  0  0  0  0  0  0  0  0  0  0  0
  1  2  1  0
  2  3  1  0
  3  4  2  0
  3  5  2  0
  3  6  1  0
  6  7  1  0
  7  8  1  0
  8  9  2  0
  9 10  1  0
 10 11  2  0
 11 12  1  0
 12 13  2  0
 12 14  1  0
 14 15  1  0
 15 16  1  0
 16 17  2  0
 16 18  1  0
 18 19  2  0
 19 20  1  0
 20 21  1  0
 21 22  2  0
 22 23  1  0
 23 24  2  0
 24 25  1  0
 25 26  2  0
 15 27  1  0
 27 28  1  0
 13  8  1  0
 26 18  1  0
 28 11  1  0
 25 20  1  0
  1 29  1  0
  1 30  1  0
  1 31  1  0
  2 32  1  0
  2 33  1  0
  6 34  1  0
  7 35  1  0
  7 36  1  0
  9 37  1  0
 13 38  1  0
 14 39  1  0
 14 40  1  0
 19 41  1  0
 21 42  1  0
 22 43  1  0
 23 44  1  0
 27 45  1  0
 27 46  1  0
 28 47  1  0
 28 48  1  0
M  END
>  <Energy>  (637) 
1066.6614685034142

>  <compound_id>  (637) 
69633

>  <target_id>  (637) 
1

>  <reference_id>  (637) 
13

>  <inspiration_ids>  (637) 
[106, 13]

>  <energy_score>  (637) 
1019.8163558602542

>  <distance_score>  (637) 
5.232906535668232

>  <path>  (637) 
/opt/xchem-fragalysis-2/maxwin/BulkDock/SCRATCH/511015/C69633-P13/C69633-P13.minimised.mol

>  <scratch_subdir>  (637) 
/opt/xchem-fragalysis-2/maxwin/BulkDock/SCRATCH/511015/C69633-P13

>  <fragmenstein_runtime>  (637) 
9.58599591255188

>  <fragmenstein_outcome>  (637) 
too moved

>  <fragmenstein_mode>  (637) 
expansion

>  <fragmenstein_error>  (637) 


$$$$
C26730-P40
     RDKit          3D

 45 47  0  0  0  0  0  0  0  0999 V2000
   -5.5445  -17.6364   18.9911 C   0  0  0  0  0  0  0  0  0  0  0  0
   -5.1365  -17.4231   20.7959 C   0  0  0  0  0  0  0  0  0  0  0  0
   -3.7422  -16.8041   20.2374 C   0  0  0  0  0  0  0  0  0  0  0  0
   -6.0342  -19.2190   20.2365 C   0  0  0  0  0  0  0  0  0  0  0  0
   -6.8292  -20.4851   18.9138 N   0  0  0  0  0  0  0  0  0  0  0  0
   -7.6894  -21.0201   17.2339 C   0  0  0  0  0  0  0  0  0  0  0  0
   -9.3141  -21.7370   16.3523 C   0  0  0  0  0  0  0  0  0  0  0  0
   -9.6344  -23.3551   15.3970 C   0  0  0  0  0  0  0  0  0  0  0  0
   -9.6561  -23.3587   13.9727 N   0  0  0  0  0  0  0  0  0  0  0  0
   -8.8686  -22.2018   13.9712 C   0  0  0  0  0  0  0  0  0  0  0  0
   -7.7575  -22.1649   15.4024 C   0  0  0  0  0  0  0  0  0  0  0  0
   -4.3938  -16.0285   22.1501 C   0  0  0  0  0  0  0  0  0  0  0  0
   -5.0391  -15.0190   23.4513 C   0  0  0  0  0  0  0  0  0  0  0  0
   -5.3396  -13.6526   23.3270 N   0  0  0  0  0  0  0  0  0  0  0  0
   -4.1320  -13.4365   23.7636 C   0  0  0  0  0  0  0  0  0  0  0  0
   -3.4381  -12.3670   24.5908 C   0  0  0  0  0  0  0  0  0  0  0  0
   -2.6205  -12.7701   25.6927 C   0  0  0  0  0  0  0  0  0  0  0  0
   -2.5875  -11.9435   26.7213 F   0  0  0  0  0  0  0  0  0  0  0  0
   -2.2945  -14.1257   25.8846 C   0  0  0  0  0  0  0  0  0  0  0  0
   -2.8186  -15.3884   24.8058 C   0  0  0  0  0  0  0  0  0  0  0  0
   -3.5944  -15.0358   23.5286 C   0  0  0  0  0  0  0  0  0  0  0  0
   -6.6277  -17.6893   18.8616 H   0  0  0  0  0  0  0  0  0  0  0  0
   -5.2320  -16.9470   18.1931 H   0  0  0  0  0  0  0  0  0  0  0  0
   -5.0270  -18.5271   18.5966 H   0  0  0  0  0  0  0  0  0  0  0  0
   -3.4792  -15.7712   20.1764 H   0  0  0  0  0  0  0  0  0  0  0  0
   -3.7031  -16.7463   19.1513 H   0  0  0  0  0  0  0  0  0  0  0  0
   -2.8827  -17.0433   20.8509 H   0  0  0  0  0  0  0  0  0  0  0  0
   -6.8476  -19.2717   20.9715 H   0  0  0  0  0  0  0  0  0  0  0  0
   -5.2583  -19.9322   20.5345 H   0  0  0  0  0  0  0  0  0  0  0  0
   -7.7264  -20.4812   19.4307 H   0  0  0  0  0  0  0  0  0  0  0  0
   -8.4488  -20.2737   17.5409 H   0  0  0  0  0  0  0  0  0  0  0  0
   -9.7267  -20.9012   15.8086 H   0  0  0  0  0  0  0  0  0  0  0  0
   -9.5376  -21.8942   17.3349 H   0  0  0  0  0  0  0  0  0  0  0  0
   -8.8652  -24.0448   15.6163 H   0  0  0  0  0  0  0  0  0  0  0  0
  -10.4419  -24.0334   15.5950 H   0  0  0  0  0  0  0  0  0  0  0  0
  -10.5842  -23.1516   13.6098 H   0  0  0  0  0  0  0  0  0  0  0  0
   -9.6356  -21.4218   13.9497 H   0  0  0  0  0  0  0  0  0  0  0  0
   -8.2822  -22.1786   13.0405 H   0  0  0  0  0  0  0  0  0  0  0  0
   -7.3476  -23.1047   15.5855 H   0  0  0  0  0  0  0  0  0  0  0  0
   -7.2473  -21.6277   14.5823 H   0  0  0  0  0  0  0  0  0  0  0  0
   -5.9957  -15.2413   23.8949 H   0  0  0  0  0  0  0  0  0  0  0  0
   -6.1348  -13.0319   23.2637 H   0  0  0  0  0  0  0  0  0  0  0  0
   -3.6724  -11.4188   24.1974 H   0  0  0  0  0  0  0  0  0  0  0  0
   -1.9866  -14.4510   26.8786 H   0  0  0  0  0  0  0  0  0  0  0  0
   -2.6922  -16.3807   25.2484 H   0  0  0  0  0  0  0  0  0  0  0  0
  1  2  1  0
  2  3  1  0
  2  4  1  0
  4  5  1  0
  5  6  1  0
  6  7  1  0
  7  8  1  0
  8  9  1  0
  9 10  1  0
 10 11  1  0
  2 12  1  0
 12 13  2  0
 13 14  1  0
 14 15  1  0
 15 16  2  0
 16 17  1  0
 17 18  1  0
 17 19  2  0
 19 20  1  0
 20 21  2  0
 11  6  1  0
 21 12  1  0
 21 15  1  0
  1 22  1  0
  1 23  1  0
  1 24  1  0
  3 25  1  0
  3 26  1  0
  3 27  1  0
  4 28  1  0
  4 29  1  0
  5 30  1  0
  6 31  1  0
  7 32  1  0
  7 33  1  0
  8 34  1  0
  8 35  1  0
  9 36  1  0
 10 37  1  0
 10 38  1  0
 11 39  1  0
 11 40  1  0
 13 41  1  0
 14 42  1  0
 16 43  1  0
 19 44  1  0
 20 45  1  0
M  END
>  <Energy>  (638) 
1564.4873420370886

>  <compound_id>  (638) 
26730

>  <target_id>  (638) 
1

>  <reference_id>  (638) 
40

>  <inspiration_ids>  (638) 
[40, 9]

>  <energy_score>  (638) 
1480.787892698147

>  <distance_score>  (638) 
9.2233819873351

>  <path>  (638) 
/opt/xchem-fragalysis-2/maxwin/BulkDock/SCRATCH/511015/C26730-P40/C26730-P40.minimised.mol

>  <scratch_subdir>  (638) 
/opt/xchem-fragalysis-2/maxwin/BulkDock/SCRATCH/511015/C26730-P40

>  <fragmenstein_runtime>  (638) 
12.676956176757812

>  <fragmenstein_outcome>  (638) 
too moved

>  <fragmenstein_mode>  (638) 
expansion

>  <fragmenstein_error>  (638) 


$$$$
C26730-P9
     RDKit          3D

 45 47  0  0  0  0  0  0  0  0999 V2000
   -1.4812  -14.2040   16.4080 C   0  0  0  0  0  0  0  0  0  0  0  0
   -2.3303  -13.1296   15.7080 C   0  0  0  0  0  0  0  0  0  0  0  0
   -1.6813  -12.8109   14.3400 C   0  0  0  0  0  0  0  0  0  0  0  0
   -3.8131  -13.7945   15.4110 C   0  0  0  0  0  0  0  0  0  0  0  0
   -3.9023  -14.9652   14.4791 N   0  0  0  0  0  0  0  0  0  0  0  0
   -5.1173  -15.8165   14.5997 C   0  0  0  0  0  0  0  0  0  0  0  0
   -5.0973  -16.9421   13.5355 C   0  0  0  0  0  0  0  0  0  0  0  0
   -6.1422  -16.7824   12.4295 C   0  0  0  0  0  0  0  0  0  0  0  0
   -7.5058  -16.4942   12.8649 N   0  0  0  0  0  0  0  0  0  0  0  0
   -7.6151  -15.9885   14.2270 C   0  0  0  0  0  0  0  0  0  0  0  0
   -6.4527  -15.0570   14.5628 C   0  0  0  0  0  0  0  0  0  0  0  0
   -2.3276  -11.7514   16.5503 C   0  0  0  0  0  0  0  0  0  0  0  0
   -3.3836  -10.8549   16.5516 C   0  0  0  0  0  0  0  0  0  0  0  0
   -3.0163   -9.6894   17.1701 N   0  0  0  0  0  0  0  0  0  0  0  0
   -1.7571   -9.7767   17.6897 C   0  0  0  0  0  0  0  0  0  0  0  0
   -1.0304   -8.8035   18.4019 C   0  0  0  0  0  0  0  0  0  0  0  0
    0.2773   -9.1071   18.7452 C   0  0  0  0  0  0  0  0  0  0  0  0
    1.0082   -8.2064   19.4148 F   0  0  0  0  0  0  0  0  0  0  0  0
    0.8359  -10.3221   18.3947 C   0  0  0  0  0  0  0  0  0  0  0  0
    0.0869  -11.2783   17.6712 C   0  0  0  0  0  0  0  0  0  0  0  0
   -1.2637  -11.0367   17.3114 C   0  0  0  0  0  0  0  0  0  0  0  0
   -0.4273  -13.9198   16.4639 H   0  0  0  0  0  0  0  0  0  0  0  0
   -1.8341  -14.3826   17.4258 H   0  0  0  0  0  0  0  0  0  0  0  0
   -1.5173  -15.1585   15.8716 H   0  0  0  0  0  0  0  0  0  0  0  0
   -2.2961  -12.1044   13.7706 H   0  0  0  0  0  0  0  0  0  0  0  0
   -1.5511  -13.7124   13.7320 H   0  0  0  0  0  0  0  0  0  0  0  0
   -0.6914  -12.3567   14.4660 H   0  0  0  0  0  0  0  0  0  0  0  0
   -4.2327  -14.0938   16.3673 H   0  0  0  0  0  0  0  0  0  0  0  0
   -4.4623  -13.0069   15.0114 H   0  0  0  0  0  0  0  0  0  0  0  0
   -3.8332  -14.6144   13.5238 H   0  0  0  0  0  0  0  0  0  0  0  0
   -5.0381  -16.3098   15.5777 H   0  0  0  0  0  0  0  0  0  0  0  0
   -5.2572  -17.8999   14.0292 H   0  0  0  0  0  0  0  0  0  0  0  0
   -4.1030  -17.0289   13.0784 H   0  0  0  0  0  0  0  0  0  0  0  0
   -5.8261  -15.9616   11.7740 H   0  0  0  0  0  0  0  0  0  0  0  0
   -6.1473  -17.6814   11.8021 H   0  0  0  0  0  0  0  0  0  0  0  0
   -8.1281  -17.2830   12.7115 H   0  0  0  0  0  0  0  0  0  0  0  0
   -8.5598  -15.4422   14.3198 H   0  0  0  0  0  0  0  0  0  0  0  0
   -7.6500  -16.8067   14.9509 H   0  0  0  0  0  0  0  0  0  0  0  0
   -6.6331  -14.5806   15.5342 H   0  0  0  0  0  0  0  0  0  0  0  0
   -6.4118  -14.2459   13.8232 H   0  0  0  0  0  0  0  0  0  0  0  0
   -4.3645  -10.9237   16.1011 H   0  0  0  0  0  0  0  0  0  0  0  0
   -3.5979   -8.8664   17.2292 H   0  0  0  0  0  0  0  0  0  0  0  0
   -1.4592   -7.8405   18.6513 H   0  0  0  0  0  0  0  0  0  0  0  0
    1.8705  -10.5266   18.6532 H   0  0  0  0  0  0  0  0  0  0  0  0
    0.5696  -12.2045   17.3768 H   0  0  0  0  0  0  0  0  0  0  0  0
  1  2  1  0
  2  3  1  0
  2  4  1  0
  4  5  1  0
  5  6  1  0
  6  7  1  0
  7  8  1  0
  8  9  1  0
  9 10  1  0
 10 11  1  0
  2 12  1  0
 12 13  2  0
 13 14  1  0
 14 15  1  0
 15 16  2  0
 16 17  1  0
 17 18  1  0
 17 19  2  0
 19 20  1  0
 20 21  2  0
 11  6  1  0
 21 12  1  0
 21 15  1  0
  1 22  1  0
  1 23  1  0
  1 24  1  0
  3 25  1  0
  3 26  1  0
  3 27  1  0
  4 28  1  0
  4 29  1  0
  5 30  1  0
  6 31  1  0
  7 32  1  0
  7 33  1  0
  8 34  1  0
  8 35  1  0
  9 36  1  0
 10 37  1  0
 10 38  1  0
 11 39  1  0
 11 40  1  0
 13 41  1  0
 14 42  1  0
 16 43  1  0
 19 44  1  0
 20 45  1  0
M  END
>  <Energy>  (639) 
56.768052728361397

>  <compound_id>  (639) 
26730

>  <target_id>  (639) 
1

>  <reference_id>  (639) 
9

>  <inspiration_ids>  (639) 
[40, 9]

>  <energy_score>  (639) 
-26.93139661059297

>  <distance_score>  (639) 
12.375233452716515

>  <path>  (639) 
/opt/xchem-fragalysis-2/maxwin/BulkDock/SCRATCH/511015/C26730-P9/C26730-P9.minimised.mol

>  <scratch_subdir>  (639) 
/opt/xchem-fragalysis-2/maxwin/BulkDock/SCRATCH/511015/C26730-P9

>  <fragmenstein_runtime>  (639) 
13.968322038650513

>  <fragmenstein_outcome>  (639) 
too moved

>  <fragmenstein_mode>  (639) 
expansion

>  <fragmenstein_error>  (639) 


$$$$
C26731-P40
     RDKit          3D

 42 44  0  0  0  0  0  0  0  0999 V2000
   -1.1643  -10.3549   28.5798 C   0  0  0  0  0  0  0  0  0  0  0  0
   -2.0626  -11.3216   27.2144 C   0  0  0  0  0  0  0  0  0  0  0  0
   -2.9875  -12.2118   27.3333 C   0  0  0  0  0  0  0  0  0  0  0  0
   -2.5540  -13.2122   26.1732 C   0  0  0  0  0  0  0  0  0  0  0  0
   -2.3793  -14.5845   26.0092 C   0  0  0  0  0  0  0  0  0  0  0  0
   -3.0067  -15.5301   24.6085 C   0  0  0  0  0  0  0  0  0  0  0  0
   -4.0329  -15.2422   23.2307 C   0  0  0  0  0  0  0  0  0  0  0  0
   -4.3521  -16.5426   21.5722 C   0  0  0  0  0  0  0  0  0  0  0  0
   -5.5200  -17.8934   20.4261 N   0  0  0  0  0  0  0  0  0  0  0  0
   -5.3609  -19.4268   18.6805 S   0  0  0  0  0  0  0  0  0  0  0  0
   -4.4797  -20.3616   19.3660 O   0  0  0  0  0  0  0  0  0  0  0  0
   -4.8626  -18.5036   17.6710 O   0  0  0  0  0  0  0  0  0  0  0  0
   -6.7442  -20.9847   17.4169 C   0  0  0  0  0  0  0  0  0  0  0  0
   -7.5438  -22.1616   15.7116 C   0  0  0  0  0  0  0  0  0  0  0  0
   -9.0598  -22.2173   15.5315 C   0  0  0  0  0  0  0  0  0  0  0  0
   -9.4137  -21.1368   16.3937 N   0  0  0  0  0  0  0  0  0  0  0  0
   -8.9237  -20.5843   17.7332 C   0  0  0  0  0  0  0  0  0  0  0  0
   -7.6655  -20.0936   18.1394 C   0  0  0  0  0  0  0  0  0  0  0  0
   -4.1999  -13.5394   23.7300 C   0  0  0  0  0  0  0  0  0  0  0  0
   -3.1386  -12.6434   25.0161 C   0  0  0  0  0  0  0  0  0  0  0  0
   -2.5948  -11.6001   25.7370 N   0  0  0  0  0  0  0  0  0  0  0  0
   -1.0131   -9.2557   28.7092 H   0  0  0  0  0  0  0  0  0  0  0  0
   -0.1269  -10.4081   28.6643 H   0  0  0  0  0  0  0  0  0  0  0  0
   -1.5831  -10.7219   29.5409 H   0  0  0  0  0  0  0  0  0  0  0  0
   -3.1607  -12.1552   28.4292 H   0  0  0  0  0  0  0  0  0  0  0  0
   -2.0440  -15.1826   26.8759 H   0  0  0  0  0  0  0  0  0  0  0  0
   -2.7433  -16.5070   25.0314 H   0  0  0  0  0  0  0  0  0  0  0  0
   -3.9472  -16.0771   20.6751 H   0  0  0  0  0  0  0  0  0  0  0  0
   -3.4396  -17.0904   21.5052 H   0  0  0  0  0  0  0  0  0  0  0  0
   -5.9539  -18.4810   21.1475 H   0  0  0  0  0  0  0  0  0  0  0  0
   -5.9378  -20.5475   16.8144 H   0  0  0  0  0  0  0  0  0  0  0  0
   -7.3710  -21.8407   14.6204 H   0  0  0  0  0  0  0  0  0  0  0  0
   -7.2466  -23.1731   15.7332 H   0  0  0  0  0  0  0  0  0  0  0  0
   -9.4674  -23.2094   15.6733 H   0  0  0  0  0  0  0  0  0  0  0  0
   -9.3514  -22.0099   14.4924 H   0  0  0  0  0  0  0  0  0  0  0  0
   -9.7183  -20.3909   15.7787 H   0  0  0  0  0  0  0  0  0  0  0  0
   -9.4458  -19.6562   18.0009 H   0  0  0  0  0  0  0  0  0  0  0  0
   -9.0744  -21.2506   18.5547 H   0  0  0  0  0  0  0  0  0  0  0  0
   -7.5639  -19.0149   17.9452 H   0  0  0  0  0  0  0  0  0  0  0  0
   -7.5827  -20.1900   19.2341 H   0  0  0  0  0  0  0  0  0  0  0  0
   -5.2058  -13.0552   23.6536 H   0  0  0  0  0  0  0  0  0  0  0  0
   -2.0571  -11.0699   25.0850 H   0  0  0  0  0  0  0  0  0  0  0  0
  1  2  1  0
  2  3  2  0
  3  4  1  0
  4  5  2  0
  5  6  1  0
  6  7  2  0
  7  8  1  0
  8  9  1  0
  9 10  1  0
 10 11  2  0
 10 12  2  0
 10 13  1  0
 13 14  1  0
 14 15  1  0
 15 16  1  0
 16 17  1  0
 17 18  1  0
  7 19  1  0
 19 20  2  0
 20 21  1  0
 21  2  1  0
 20  4  1  0
 18 13  1  0
  1 22  1  0
  1 23  1  0
  1 24  1  0
  3 25  1  0
  5 26  1  0
  6 27  1  0
  8 28  1  0
  8 29  1  0
  9 30  1  0
 13 31  1  0
 14 32  1  0
 14 33  1  0
 15 34  1  0
 15 35  1  0
 16 36  1  0
 17 37  1  0
 17 38  1  0
 18 39  1  0
 18 40  1  0
 19 41  1  0
 21 42  1  0
M  END
>  <Energy>  (640) 
1311.9061241038828

>  <compound_id>  (640) 
26731

>  <target_id>  (640) 
1

>  <reference_id>  (640) 
40

>  <inspiration_ids>  (640) 
[40, 9]

>  <energy_score>  (640) 
1356.5705585059684

>  <distance_score>  (640) 
9.361978284353722

>  <path>  (640) 
/opt/xchem-fragalysis-2/maxwin/BulkDock/SCRATCH/511015/C26731-P40/C26731-P40.minimised.mol

>  <scratch_subdir>  (640) 
/opt/xchem-fragalysis-2/maxwin/BulkDock/SCRATCH/511015/C26731-P40

>  <fragmenstein_runtime>  (640) 
13.49390196800232

>  <fragmenstein_outcome>  (640) 
too moved

>  <fragmenstein_mode>  (640) 
expansion

>  <fragmenstein_error>  (640) 


$$$$
C26731-P9
     RDKit          3D

 42 44  0  0  0  0  0  0  0  0999 V2000
   -6.1646   -7.5802   27.5155 C   0  0  0  0  0  0  0  0  0  0  0  0
   -5.0314   -8.5499   26.9561 C   0  0  0  0  0  0  0  0  0  0  0  0
   -3.2373   -9.0527   26.1714 C   0  0  0  0  0  0  0  0  0  0  0  0
   -3.3760  -11.3435   26.5578 C   0  0  0  0  0  0  0  0  0  0  0  0
   -2.9807  -12.3326   25.6193 C   0  0  0  0  0  0  0  0  0  0  0  0
   -4.1101  -12.6882   24.3478 C   0  0  0  0  0  0  0  0  0  0  0  0
   -5.0718  -14.0668   23.5978 C   0  0  0  0  0  0  0  0  0  0  0  0
   -4.7373  -15.8459   22.2091 C   0  0  0  0  0  0  0  0  0  0  0  0
   -5.7322  -17.4624   21.0165 N   0  0  0  0  0  0  0  0  0  0  0  0
   -6.2449  -18.6639   18.9557 S   0  0  0  0  0  0  0  0  0  0  0  0
   -7.4517  -17.8653   18.7586 O   0  0  0  0  0  0  0  0  0  0  0  0
   -5.0648  -18.2281   18.2315 O   0  0  0  0  0  0  0  0  0  0  0  0
   -6.9224  -20.7923   17.7528 C   0  0  0  0  0  0  0  0  0  0  0  0
   -7.6673  -22.0640   16.0499 C   0  0  0  0  0  0  0  0  0  0  0  0
   -9.2478  -21.9816   15.9688 C   0  0  0  0  0  0  0  0  0  0  0  0
   -9.4652  -20.8324   16.8568 N   0  0  0  0  0  0  0  0  0  0  0  0
   -9.0707  -19.9399   18.0585 C   0  0  0  0  0  0  0  0  0  0  0  0
   -8.0472  -20.5821   18.8060 C   0  0  0  0  0  0  0  0  0  0  0  0
   -5.8233  -12.6355   24.8199 C   0  0  0  0  0  0  0  0  0  0  0  0
   -5.4013  -11.7746   26.6674 C   0  0  0  0  0  0  0  0  0  0  0  0
   -6.1868  -10.1299   26.8619 N   0  0  0  0  0  0  0  0  0  0  0  0
   -6.2467   -6.5520   27.1753 H   0  0  0  0  0  0  0  0  0  0  0  0
   -6.2157   -7.6562   28.6035 H   0  0  0  0  0  0  0  0  0  0  0  0
   -7.1419   -7.9731   27.1977 H   0  0  0  0  0  0  0  0  0  0  0  0
   -2.5317   -8.2133   26.2295 H   0  0  0  0  0  0  0  0  0  0  0  0
   -2.4715  -13.1977   26.0618 H   0  0  0  0  0  0  0  0  0  0  0  0
   -4.3104  -11.6078   24.1121 H   0  0  0  0  0  0  0  0  0  0  0  0
   -4.0263  -16.4789   22.5693 H   0  0  0  0  0  0  0  0  0  0  0  0
   -4.0248  -16.0045   21.3061 H   0  0  0  0  0  0  0  0  0  0  0  0
   -4.8084  -17.6272   20.5653 H   0  0  0  0  0  0  0  0  0  0  0  0
   -6.0798  -21.3914   18.1378 H   0  0  0  0  0  0  0  0  0  0  0  0
   -7.4365  -23.1317   15.9183 H   0  0  0  0  0  0  0  0  0  0  0  0
   -7.5537  -21.8648   14.8829 H   0  0  0  0  0  0  0  0  0  0  0  0
   -9.5593  -21.7543   14.9372 H   0  0  0  0  0  0  0  0  0  0  0  0
   -9.6715  -22.9688   16.0805 H   0  0  0  0  0  0  0  0  0  0  0  0
   -9.8752  -20.2024   16.1667 H   0  0  0  0  0  0  0  0  0  0  0  0
   -8.9497  -18.8741   17.8573 H   0  0  0  0  0  0  0  0  0  0  0  0
   -9.8123  -19.6462   18.8160 H   0  0  0  0  0  0  0  0  0  0  0  0
   -8.7371  -21.2382   19.2676 H   0  0  0  0  0  0  0  0  0  0  0  0
   -7.7389  -20.1053   19.7379 H   0  0  0  0  0  0  0  0  0  0  0  0
   -6.5524  -11.9820   24.3656 H   0  0  0  0  0  0  0  0  0  0  0  0
   -6.6657  -10.1349   27.7399 H   0  0  0  0  0  0  0  0  0  0  0  0
  1  2  1  0
  2  3  2  0
  3  4  1  0
  4  5  2  0
  5  6  1  0
  6  7  2  0
  7  8  1  0
  8  9  1  0
  9 10  1  0
 10 11  2  0
 10 12  2  0
 10 13  1  0
 13 14  1  0
 14 15  1  0
 15 16  1  0
 16 17  1  0
 17 18  1  0
  7 19  1  0
 19 20  2  0
 20 21  1  0
 21  2  1  0
 20  4  1  0
 18 13  1  0
  1 22  1  0
  1 23  1  0
  1 24  1  0
  3 25  1  0
  5 26  1  0
  6 27  1  0
  8 28  1  0
  8 29  1  0
  9 30  1  0
 13 31  1  0
 14 32  1  0
 14 33  1  0
 15 34  1  0
 15 35  1  0
 16 36  1  0
 17 37  1  0
 17 38  1  0
 18 39  1  0
 18 40  1  0
 19 41  1  0
 21 42  1  0
M  END
>  <Energy>  (641) 
2683.8118593904087

>  <compound_id>  (641) 
26731

>  <target_id>  (641) 
1

>  <reference_id>  (641) 
9

>  <inspiration_ids>  (641) 
[40, 9]

>  <energy_score>  (641) 
2728.476293792505

>  <distance_score>  (641) 
9.02481121543709

>  <path>  (641) 
/opt/xchem-fragalysis-2/maxwin/BulkDock/SCRATCH/511015/C26731-P9/C26731-P9.minimised.mol

>  <scratch_subdir>  (641) 
/opt/xchem-fragalysis-2/maxwin/BulkDock/SCRATCH/511015/C26731-P9

>  <fragmenstein_runtime>  (641) 
15.86867356300354

>  <fragmenstein_outcome>  (641) 
too moved

>  <fragmenstein_mode>  (641) 
expansion

>  <fragmenstein_error>  (641) 


$$$$
C26735-P40
     RDKit          3D

 44 47  0  0  0  0  0  0  0  0999 V2000
   -6.2447  -18.2388   20.3421 C   0  0  0  0  0  0  0  0  0  0  0  0
   -7.2387  -17.1668   20.1272 N   0  0  0  0  0  0  0  0  0  0  0  0
   -6.6179  -15.9181   20.5618 C   0  0  0  0  0  0  0  0  0  0  0  0
   -7.1419  -13.9019   20.5126 C   0  0  0  0  0  0  0  0  0  0  0  0
   -6.1267  -12.9937   22.1957 N   0  0  0  0  0  0  0  0  0  0  0  0
   -4.7059  -12.8887   23.7577 C   0  0  0  0  0  0  0  0  0  0  0  0
   -3.1482  -11.8001   25.0549 C   0  0  0  0  0  0  0  0  0  0  0  0
   -2.8939  -12.1380   26.5665 C   0  0  0  0  0  0  0  0  0  0  0  0
   -2.0636  -11.3272   27.9685 C   0  0  0  0  0  0  0  0  0  0  0  0
   -0.9143   -9.9681   28.4146 C   0  0  0  0  0  0  0  0  0  0  0  0
   -0.4983   -9.4074   29.6508 C   0  0  0  0  0  0  0  0  0  0  0  0
    0.0310   -8.1717   29.3812 C   0  0  0  0  0  0  0  0  0  0  0  0
   -0.9250   -7.8110   28.4872 N   0  0  0  0  0  0  0  0  0  0  0  0
   -0.9119   -8.5724   27.1469 C   0  0  0  0  0  0  0  0  0  0  0  0
   -2.0359  -10.1681   26.0572 C   0  0  0  0  0  0  0  0  0  0  0  0
   -4.5150  -14.7242   23.0793 C   0  0  0  0  0  0  0  0  0  0  0  0
   -4.8512  -15.9338   21.5110 N   0  0  0  0  0  0  0  0  0  0  0  0
   -8.2428  -17.6451   19.0808 C   0  0  0  0  0  0  0  0  0  0  0  0
   -9.4938  -16.8286   18.8022 C   0  0  0  0  0  0  0  0  0  0  0  0
  -10.8666  -17.3506   19.2457 C   0  0  0  0  0  0  0  0  0  0  0  0
  -10.9497  -18.5098   20.1373 N   0  0  0  0  0  0  0  0  0  0  0  0
   -9.7031  -19.2181   20.4093 C   0  0  0  0  0  0  0  0  0  0  0  0
   -8.6857  -19.1115   19.2985 C   0  0  0  0  0  0  0  0  0  0  0  0
   -6.1247  -18.8804   19.4614 H   0  0  0  0  0  0  0  0  0  0  0  0
   -5.2383  -17.8808   20.4798 H   0  0  0  0  0  0  0  0  0  0  0  0
   -6.5315  -18.8427   21.2076 H   0  0  0  0  0  0  0  0  0  0  0  0
   -8.0127  -13.3884   20.0256 H   0  0  0  0  0  0  0  0  0  0  0  0
   -3.8278  -12.3182   27.0754 H   0  0  0  0  0  0  0  0  0  0  0  0
   -2.5005  -11.7442   28.9135 H   0  0  0  0  0  0  0  0  0  0  0  0
   -0.7367   -9.8069   30.6272 H   0  0  0  0  0  0  0  0  0  0  0  0
    0.4085   -7.4425   30.0875 H   0  0  0  0  0  0  0  0  0  0  0  0
   -1.7514   -7.2714   28.7266 H   0  0  0  0  0  0  0  0  0  0  0  0
   -1.8438   -9.9957   24.9085 H   0  0  0  0  0  0  0  0  0  0  0  0
   -3.6670  -15.1841   23.5797 H   0  0  0  0  0  0  0  0  0  0  0  0
   -7.6680  -17.6740   18.1451 H   0  0  0  0  0  0  0  0  0  0  0  0
   -9.3752  -15.8204   19.1668 H   0  0  0  0  0  0  0  0  0  0  0  0
   -9.5593  -16.7393   17.7097 H   0  0  0  0  0  0  0  0  0  0  0  0
  -11.4139  -16.5287   19.7227 H   0  0  0  0  0  0  0  0  0  0  0  0
  -11.4964  -17.4972   18.3653 H   0  0  0  0  0  0  0  0  0  0  0  0
  -11.6768  -19.1445   19.8098 H   0  0  0  0  0  0  0  0  0  0  0  0
   -9.9271  -20.2665   20.6311 H   0  0  0  0  0  0  0  0  0  0  0  0
   -9.2513  -18.8583   21.3376 H   0  0  0  0  0  0  0  0  0  0  0  0
   -7.8732  -19.8091   19.5090 H   0  0  0  0  0  0  0  0  0  0  0  0
   -9.0988  -19.4759   18.3615 H   0  0  0  0  0  0  0  0  0  0  0  0
  1  2  1  0
  2  3  1  0
  3  4  2  0
  4  5  1  0
  5  6  2  0
  6  7  1  0
  7  8  2  0
  8  9  1  0
  9 10  2  0
 10 11  1  0
 11 12  2  0
 12 13  1  0
 13 14  1  0
 14 15  2  0
  6 16  1  0
 16 17  2  0
  2 18  1  0
 18 19  1  0
 19 20  1  0
 20 21  1  0
 21 22  1  0
 22 23  1  0
 17  3  1  0
 23 18  1  0
 15  7  1  0
 14 10  1  0
  1 24  1  0
  1 25  1  0
  1 26  1  0
  4 27  1  0
  8 28  1  0
  9 29  1  0
 11 30  1  0
 12 31  1  0
 13 32  1  0
 15 33  1  0
 16 34  1  0
 18 35  1  0
 19 36  1  0
 19 37  1  0
 20 38  1  0
 20 39  1  0
 21 40  1  0
 22 41  1  0
 22 42  1  0
 23 43  1  0
 23 44  1  0
M  END
>  <Energy>  (642) 
2660.7865979363678

>  <compound_id>  (642) 
26735

>  <target_id>  (642) 
1

>  <reference_id>  (642) 
40

>  <inspiration_ids>  (642) 
[40, 9]

>  <energy_score>  (642) 
2544.6557737113653

>  <distance_score>  (642) 
8.656709118996439

>  <path>  (642) 
/opt/xchem-fragalysis-2/maxwin/BulkDock/SCRATCH/511015/C26735-P40/C26735-P40.minimised.mol

>  <scratch_subdir>  (642) 
/opt/xchem-fragalysis-2/maxwin/BulkDock/SCRATCH/511015/C26735-P40

>  <fragmenstein_runtime>  (642) 
14.156336545944214

>  <fragmenstein_outcome>  (642) 
too moved

>  <fragmenstein_mode>  (642) 
expansion

>  <fragmenstein_error>  (642) 


$$$$
C26735-P9
     RDKit          3D

 44 47  0  0  0  0  0  0  0  0999 V2000
   -7.1501  -15.5748   16.6130 C   0  0  0  0  0  0  0  0  0  0  0  0
   -7.9817  -14.5991   17.8430 N   0  0  0  0  0  0  0  0  0  0  0  0
   -7.4399  -12.9030   18.4192 C   0  0  0  0  0  0  0  0  0  0  0  0
   -5.8239  -12.3947   18.3752 C   0  0  0  0  0  0  0  0  0  0  0  0
   -4.4586  -11.7781   19.3734 N   0  0  0  0  0  0  0  0  0  0  0  0
   -4.7104  -11.2502   20.7125 C   0  0  0  0  0  0  0  0  0  0  0  0
   -3.9749   -9.9729   22.0401 C   0  0  0  0  0  0  0  0  0  0  0  0
   -3.4069  -10.0043   23.5164 C   0  0  0  0  0  0  0  0  0  0  0  0
   -2.4409   -9.0119   24.7123 C   0  0  0  0  0  0  0  0  0  0  0  0
   -1.9317   -7.1949   24.1086 C   0  0  0  0  0  0  0  0  0  0  0  0
   -1.9024   -5.7381   24.4892 C   0  0  0  0  0  0  0  0  0  0  0  0
   -2.9977   -4.9898   23.8225 C   0  0  0  0  0  0  0  0  0  0  0  0
   -3.7955   -5.8022   23.0289 N   0  0  0  0  0  0  0  0  0  0  0  0
   -3.1148   -7.0735   22.7449 C   0  0  0  0  0  0  0  0  0  0  0  0
   -3.7832   -8.2769   22.0516 C   0  0  0  0  0  0  0  0  0  0  0  0
   -6.2618  -11.8434   20.6404 C   0  0  0  0  0  0  0  0  0  0  0  0
   -7.3224  -12.8654   19.7133 N   0  0  0  0  0  0  0  0  0  0  0  0
   -8.9881  -15.7503   18.8675 C   0  0  0  0  0  0  0  0  0  0  0  0
  -10.3152  -16.3012   18.3494 C   0  0  0  0  0  0  0  0  0  0  0  0
   -9.9740  -17.4068   17.4105 C   0  0  0  0  0  0  0  0  0  0  0  0
   -9.4764  -18.4901   18.2829 N   0  0  0  0  0  0  0  0  0  0  0  0
   -8.1757  -18.2331   18.8363 C   0  0  0  0  0  0  0  0  0  0  0  0
   -8.3592  -17.0087   19.6737 C   0  0  0  0  0  0  0  0  0  0  0  0
   -6.1057  -15.8085   16.7942 H   0  0  0  0  0  0  0  0  0  0  0  0
   -7.3732  -15.2127   15.6145 H   0  0  0  0  0  0  0  0  0  0  0  0
   -7.6038  -16.5571   16.6513 H   0  0  0  0  0  0  0  0  0  0  0  0
   -5.6269  -11.7136   17.5435 H   0  0  0  0  0  0  0  0  0  0  0  0
   -2.7793   -9.6092   22.8456 H   0  0  0  0  0  0  0  0  0  0  0  0
   -2.6442   -8.8883   25.7820 H   0  0  0  0  0  0  0  0  0  0  0  0
   -1.4929   -5.4123   25.4042 H   0  0  0  0  0  0  0  0  0  0  0  0
   -3.3221   -3.9620   23.9940 H   0  0  0  0  0  0  0  0  0  0  0  0
   -4.6429   -5.5191   22.5560 H   0  0  0  0  0  0  0  0  0  0  0  0
   -4.7012   -7.7915   21.8866 H   0  0  0  0  0  0  0  0  0  0  0  0
   -6.9192  -11.0332   20.3853 H   0  0  0  0  0  0  0  0  0  0  0  0
   -9.2192  -14.9867   19.5620 H   0  0  0  0  0  0  0  0  0  0  0  0
  -11.0481  -15.5972   17.9608 H   0  0  0  0  0  0  0  0  0  0  0  0
  -10.8875  -16.7106   19.1984 H   0  0  0  0  0  0  0  0  0  0  0  0
  -10.8819  -17.5816   16.8305 H   0  0  0  0  0  0  0  0  0  0  0  0
   -9.2874  -17.1499   16.6152 H   0  0  0  0  0  0  0  0  0  0  0  0
   -9.4446  -19.4021   17.8440 H   0  0  0  0  0  0  0  0  0  0  0  0
   -7.3958  -18.1264   18.0807 H   0  0  0  0  0  0  0  0  0  0  0  0
   -7.8814  -19.0743   19.4742 H   0  0  0  0  0  0  0  0  0  0  0  0
   -7.4524  -16.8674   20.2663 H   0  0  0  0  0  0  0  0  0  0  0  0
   -9.0866  -17.2802   20.4492 H   0  0  0  0  0  0  0  0  0  0  0  0
  1  2  1  0
  2  3  1  0
  3  4  2  0
  4  5  1  0
  5  6  2  0
  6  7  1  0
  7  8  2  0
  8  9  1  0
  9 10  2  0
 10 11  1  0
 11 12  2  0
 12 13  1  0
 13 14  1  0
 14 15  2  0
  6 16  1  0
 16 17  2  0
  2 18  1  0
 18 19  1  0
 19 20  1  0
 20 21  1  0
 21 22  1  0
 22 23  1  0
 17  3  1  0
 23 18  1  0
 15  7  1  0
 14 10  1  0
  1 24  1  0
  1 25  1  0
  1 26  1  0
  4 27  1  0
  8 28  1  0
  9 29  1  0
 11 30  1  0
 12 31  1  0
 13 32  1  0
 15 33  1  0
 16 34  1  0
 18 35  1  0
 19 36  1  0
 19 37  1  0
 20 38  1  0
 20 39  1  0
 21 40  1  0
 22 41  1  0
 22 42  1  0
 23 43  1  0
 23 44  1  0
M  END
>  <Energy>  (643) 
1061.554851908777

>  <compound_id>  (643) 
26735

>  <target_id>  (643) 
1

>  <reference_id>  (643) 
9

>  <inspiration_ids>  (643) 
[40, 9]

>  <energy_score>  (643) 
945.4240276838034

>  <distance_score>  (643) 
9.49731101619812

>  <path>  (643) 
/opt/xchem-fragalysis-2/maxwin/BulkDock/SCRATCH/511015/C26735-P9/C26735-P9.minimised.mol

>  <scratch_subdir>  (643) 
/opt/xchem-fragalysis-2/maxwin/BulkDock/SCRATCH/511015/C26735-P9

>  <fragmenstein_runtime>  (643) 
14.585888147354126

>  <fragmenstein_outcome>  (643) 
too moved

>  <fragmenstein_mode>  (643) 
expansion

>  <fragmenstein_error>  (643) 


$$$$
C26736-P40
     RDKit          3D

 41 44  0  0  0  0  0  0  0  0999 V2000
    0.0896   -7.3531   30.1817 C   0  0  0  0  0  0  0  0  0  0  0  0
   -0.4438   -8.2362   31.0992 C   0  0  0  0  0  0  0  0  0  0  0  0
   -0.8399   -9.3553   30.3505 C   0  0  0  0  0  0  0  0  0  0  0  0
   -1.3787  -10.6625   30.3299 C   0  0  0  0  0  0  0  0  0  0  0  0
   -2.3945  -11.6877   29.2483 C   0  0  0  0  0  0  0  0  0  0  0  0
   -2.3294  -11.6388   27.8111 C   0  0  0  0  0  0  0  0  0  0  0  0
   -2.4255  -13.1438   26.5393 C   0  0  0  0  0  0  0  0  0  0  0  0
   -2.1423  -14.5541   27.1168 C   0  0  0  0  0  0  0  0  0  0  0  0
   -2.1347  -15.9195   26.5414 N   0  0  0  0  0  0  0  0  0  0  0  0
   -2.7590  -15.9077   25.1883 C   0  0  0  0  0  0  0  0  0  0  0  0
   -2.6927  -14.8885   24.1873 C   0  0  0  0  0  0  0  0  0  0  0  0
   -4.1271  -15.2475   23.1035 N   0  0  0  0  0  0  0  0  0  0  0  0
   -4.5672  -16.5797   21.7644 C   0  0  0  0  0  0  0  0  0  0  0  0
   -6.1388  -17.7554   21.7899 C   0  0  0  0  0  0  0  0  0  0  0  0
   -6.3776  -18.9219   20.8507 C   0  0  0  0  0  0  0  0  0  0  0  0
   -6.2416  -18.3561   19.5409 N   0  0  0  0  0  0  0  0  0  0  0  0
   -4.8416  -17.9735   19.4490 C   0  0  0  0  0  0  0  0  0  0  0  0
   -3.9391  -16.8644   20.4710 C   0  0  0  0  0  0  0  0  0  0  0  0
   -2.3527  -13.4016   25.1140 N   0  0  0  0  0  0  0  0  0  0  0  0
   -1.1629  -10.4297   28.1458 C   0  0  0  0  0  0  0  0  0  0  0  0
   -0.6258   -9.1369   29.0534 C   0  0  0  0  0  0  0  0  0  0  0  0
    0.1260   -7.9975   28.9652 N   0  0  0  0  0  0  0  0  0  0  0  0
    0.4979   -6.3569   30.3007 H   0  0  0  0  0  0  0  0  0  0  0  0
   -0.5473   -8.0791   32.1657 H   0  0  0  0  0  0  0  0  0  0  0  0
   -0.9998  -11.1244   31.2129 H   0  0  0  0  0  0  0  0  0  0  0  0
   -2.8246  -12.5863   29.6909 H   0  0  0  0  0  0  0  0  0  0  0  0
   -2.0738  -14.6810   28.2043 H   0  0  0  0  0  0  0  0  0  0  0  0
   -3.7926  -15.9437   25.1729 H   0  0  0  0  0  0  0  0  0  0  0  0
   -4.8454  -15.5007   23.7694 H   0  0  0  0  0  0  0  0  0  0  0  0
   -3.8752  -17.0611   22.2554 H   0  0  0  0  0  0  0  0  0  0  0  0
   -6.4314  -18.0986   22.7920 H   0  0  0  0  0  0  0  0  0  0  0  0
   -7.0290  -17.1760   21.4673 H   0  0  0  0  0  0  0  0  0  0  0  0
   -5.7335  -19.7879   21.0356 H   0  0  0  0  0  0  0  0  0  0  0  0
   -7.4030  -19.2921   20.9744 H   0  0  0  0  0  0  0  0  0  0  0  0
   -6.8443  -17.5462   19.4175 H   0  0  0  0  0  0  0  0  0  0  0  0
   -4.4164  -18.9658   19.5610 H   0  0  0  0  0  0  0  0  0  0  0  0
   -4.6717  -17.6324   18.4227 H   0  0  0  0  0  0  0  0  0  0  0  0
   -3.4957  -16.0451   19.9045 H   0  0  0  0  0  0  0  0  0  0  0  0
   -3.0077  -17.2555   20.8396 H   0  0  0  0  0  0  0  0  0  0  0  0
   -0.1746  -10.6300   28.1030 H   0  0  0  0  0  0  0  0  0  0  0  0
    0.4934   -7.5718   28.1295 H   0  0  0  0  0  0  0  0  0  0  0  0
  1  2  2  0
  2  3  1  0
  3  4  2  0
  4  5  1  0
  5  6  2  0
  6  7  1  0
  7  8  2  0
  8  9  1  0
  9 10  2  0
 10 11  1  0
 11 12  1  0
 12 13  1  0
 13 14  1  0
 14 15  1  0
 15 16  1  0
 16 17  1  0
 17 18  1  0
 11 19  2  0
  6 20  1  0
 20 21  2  0
 21 22  1  0
 22  1  1  0
 21  3  1  0
 19  7  1  0
 18 13  1  0
  1 23  1  0
  2 24  1  0
  4 25  1  0
  5 26  1  0
  8 27  1  0
 10 28  1  0
 12 29  1  0
 13 30  1  0
 14 31  1  0
 14 32  1  0
 15 33  1  0
 15 34  1  0
 16 35  1  0
 17 36  1  0
 17 37  1  0
 18 38  1  0
 18 39  1  0
 20 40  1  0
 22 41  1  0
M  END
>  <Energy>  (644) 
828.03369028577231

>  <compound_id>  (644) 
26736

>  <target_id>  (644) 
1

>  <reference_id>  (644) 
40

>  <inspiration_ids>  (644) 
[40, 9]

>  <energy_score>  (644) 
731.907422665714

>  <distance_score>  (644) 
10.461072962987132

>  <path>  (644) 
/opt/xchem-fragalysis-2/maxwin/BulkDock/SCRATCH/511015/C26736-P40/C26736-P40.minimised.mol

>  <scratch_subdir>  (644) 
/opt/xchem-fragalysis-2/maxwin/BulkDock/SCRATCH/511015/C26736-P40

>  <fragmenstein_runtime>  (644) 
14.043998956680298

>  <fragmenstein_outcome>  (644) 
too moved

>  <fragmenstein_mode>  (644) 
expansion

>  <fragmenstein_error>  (644) 


$$$$
C26736-P9
     RDKit          3D

 41 44  0  0  0  0  0  0  0  0999 V2000
   -2.5542  -12.7426   26.9442 C   0  0  0  0  0  0  0  0  0  0  0  0
   -2.0492  -14.0523   27.1264 C   0  0  0  0  0  0  0  0  0  0  0  0
   -2.4787  -14.4572   25.9283 C   0  0  0  0  0  0  0  0  0  0  0  0
   -3.0066  -15.4127   24.9812 C   0  0  0  0  0  0  0  0  0  0  0  0
   -3.2135  -14.8450   23.4705 C   0  0  0  0  0  0  0  0  0  0  0  0
   -2.1072  -14.7550   21.8424 C   0  0  0  0  0  0  0  0  0  0  0  0
   -3.5423  -15.2474   20.5190 C   0  0  0  0  0  0  0  0  0  0  0  0
   -4.6520  -13.4459   20.0142 C   0  0  0  0  0  0  0  0  0  0  0  0
   -6.6706  -14.0854   20.1266 N   0  0  0  0  0  0  0  0  0  0  0  0
   -6.7636  -16.1822   20.4355 C   0  0  0  0  0  0  0  0  0  0  0  0
   -5.6883  -17.7048   19.8864 C   0  0  0  0  0  0  0  0  0  0  0  0
   -5.9771  -19.1197   18.5417 N   0  0  0  0  0  0  0  0  0  0  0  0
   -6.8198  -20.7685   17.5458 C   0  0  0  0  0  0  0  0  0  0  0  0
   -7.6543  -22.1117   15.9402 C   0  0  0  0  0  0  0  0  0  0  0  0
   -9.1684  -22.2584   15.6701 C   0  0  0  0  0  0  0  0  0  0  0  0
   -9.5564  -21.1901   16.5011 N   0  0  0  0  0  0  0  0  0  0  0  0
   -9.0772  -20.6692   17.8350 C   0  0  0  0  0  0  0  0  0  0  0  0
   -7.8754  -20.2166   18.3948 C   0  0  0  0  0  0  0  0  0  0  0  0
   -4.0313  -17.0519   20.3662 N   0  0  0  0  0  0  0  0  0  0  0  0
   -1.2544  -14.4223   23.4918 C   0  0  0  0  0  0  0  0  0  0  0  0
   -1.7304  -13.6410   25.1533 C   0  0  0  0  0  0  0  0  0  0  0  0
   -2.4441  -12.5442   25.6614 N   0  0  0  0  0  0  0  0  0  0  0  0
   -2.8792  -11.9878   27.6460 H   0  0  0  0  0  0  0  0  0  0  0  0
   -1.9712  -14.6203   28.0493 H   0  0  0  0  0  0  0  0  0  0  0  0
   -2.8272  -16.4277   25.2722 H   0  0  0  0  0  0  0  0  0  0  0  0
   -4.2306  -15.3133   23.3021 H   0  0  0  0  0  0  0  0  0  0  0  0
   -4.4334  -12.3667   20.0629 H   0  0  0  0  0  0  0  0  0  0  0  0
   -7.8173  -16.5352   20.4844 H   0  0  0  0  0  0  0  0  0  0  0  0
   -4.9748  -19.3575   18.5612 H   0  0  0  0  0  0  0  0  0  0  0  0
   -6.1831  -21.4881   18.0859 H   0  0  0  0  0  0  0  0  0  0  0  0
   -7.3562  -23.1503   15.9124 H   0  0  0  0  0  0  0  0  0  0  0  0
   -7.5038  -21.8483   14.8057 H   0  0  0  0  0  0  0  0  0  0  0  0
   -9.5436  -23.2631   15.8184 H   0  0  0  0  0  0  0  0  0  0  0  0
   -9.4314  -22.0753   14.6187 H   0  0  0  0  0  0  0  0  0  0  0  0
   -9.8672  -20.4472   15.8876 H   0  0  0  0  0  0  0  0  0  0  0  0
   -9.2759  -21.3416   18.6382 H   0  0  0  0  0  0  0  0  0  0  0  0
   -9.6032  -19.7292   18.0493 H   0  0  0  0  0  0  0  0  0  0  0  0
   -7.9549  -19.1142   18.3722 H   0  0  0  0  0  0  0  0  0  0  0  0
   -7.7465  -20.4357   19.4641 H   0  0  0  0  0  0  0  0  0  0  0  0
   -0.2768  -13.9340   23.2411 H   0  0  0  0  0  0  0  0  0  0  0  0
   -2.3790  -11.6517   25.2274 H   0  0  0  0  0  0  0  0  0  0  0  0
  1  2  2  0
  2  3  1  0
  3  4  2  0
  4  5  1  0
  5  6  2  0
  6  7  1  0
  7  8  2  0
  8  9  1  0
  9 10  2  0
 10 11  1  0
 11 12  1  0
 12 13  1  0
 13 14  1  0
 14 15  1  0
 15 16  1  0
 16 17  1  0
 17 18  1  0
 11 19  2  0
  6 20  1  0
 20 21  2  0
 21 22  1  0
 22  1  1  0
 21  3  1  0
 19  7  1  0
 18 13  1  0
  1 23  1  0
  2 24  1  0
  4 25  1  0
  5 26  1  0
  8 27  1  0
 10 28  1  0
 12 29  1  0
 13 30  1  0
 14 31  1  0
 14 32  1  0
 15 33  1  0
 15 34  1  0
 16 35  1  0
 17 36  1  0
 17 37  1  0
 18 38  1  0
 18 39  1  0
 20 40  1  0
 22 41  1  0
M  END
>  <Energy>  (645) 
2304.5357147495311

>  <compound_id>  (645) 
26736

>  <target_id>  (645) 
1

>  <reference_id>  (645) 
9

>  <inspiration_ids>  (645) 
[40, 9]

>  <energy_score>  (645) 
2208.4094471294875

>  <distance_score>  (645) 
9.589571424170629

>  <path>  (645) 
/opt/xchem-fragalysis-2/maxwin/BulkDock/SCRATCH/511015/C26736-P9/C26736-P9.minimised.mol

>  <scratch_subdir>  (645) 
/opt/xchem-fragalysis-2/maxwin/BulkDock/SCRATCH/511015/C26736-P9

>  <fragmenstein_runtime>  (645) 
12.474087238311768

>  <fragmenstein_outcome>  (645) 
too moved

>  <fragmenstein_mode>  (645) 
expansion

>  <fragmenstein_error>  (645) 


$$$$
C26737-P40
     RDKit          3D

 46 48  0  0  0  0  0  0  0  0999 V2000
   -2.5894  -20.9292   17.4391 C   0  0  0  0  0  0  0  0  0  0  0  0
   -2.4258  -21.2037   18.8742 N   0  0  0  0  0  0  0  0  0  0  0  0
   -0.9807  -21.0585   19.3340 C   0  0  0  0  0  0  0  0  0  0  0  0
   -0.3459  -19.5812   19.3486 C   0  0  0  0  0  0  0  0  0  0  0  0
   -0.7746  -18.7390   18.6049 O   0  0  0  0  0  0  0  0  0  0  0  0
    0.7990  -19.5395   20.3046 N   0  0  0  0  0  0  0  0  0  0  0  0
    1.6809  -18.4711   20.6638 C   0  0  0  0  0  0  0  0  0  0  0  0
    1.6949  -17.2631   19.9735 C   0  0  0  0  0  0  0  0  0  0  0  0
    2.5545  -16.2056   20.3460 C   0  0  0  0  0  0  0  0  0  0  0  0
    3.3365  -16.2745   21.5118 C   0  0  0  0  0  0  0  0  0  0  0  0
    4.1430  -15.3426   22.2260 C   0  0  0  0  0  0  0  0  0  0  0  0
    4.5978  -15.9745   23.3579 C   0  0  0  0  0  0  0  0  0  0  0  0
    4.1426  -17.2692   23.3206 N   0  0  0  0  0  0  0  0  0  0  0  0
    4.4163  -18.2627   24.3341 C   0  0  0  0  0  0  0  0  0  0  0  0
    3.3537  -17.4848   22.2025 C   0  0  0  0  0  0  0  0  0  0  0  0
    2.5722  -18.6065   21.7627 C   0  0  0  0  0  0  0  0  0  0  0  0
   -2.9909  -22.5486   19.2433 C   0  0  0  0  0  0  0  0  0  0  0  0
   -4.5293  -22.5224   19.3707 C   0  0  0  0  0  0  0  0  0  0  0  0
   -5.1157  -23.8971   19.7357 C   0  0  0  0  0  0  0  0  0  0  0  0
   -4.1348  -24.9498   19.9519 N   0  0  0  0  0  0  0  0  0  0  0  0
   -3.1924  -25.0657   18.8407 C   0  0  0  0  0  0  0  0  0  0  0  0
   -2.6017  -23.7364   18.3447 C   0  0  0  0  0  0  0  0  0  0  0  0
   -1.9044  -21.5198   16.8217 H   0  0  0  0  0  0  0  0  0  0  0  0
   -2.4160  -19.8722   17.2218 H   0  0  0  0  0  0  0  0  0  0  0  0
   -3.6111  -21.1365   17.1225 H   0  0  0  0  0  0  0  0  0  0  0  0
   -0.3244  -21.6910   18.7251 H   0  0  0  0  0  0  0  0  0  0  0  0
   -0.9334  -21.4115   20.3712 H   0  0  0  0  0  0  0  0  0  0  0  0
    0.8244  -20.4023   20.8306 H   0  0  0  0  0  0  0  0  0  0  0  0
    1.0548  -17.1185   19.1059 H   0  0  0  0  0  0  0  0  0  0  0  0
    2.5772  -15.2989   19.7540 H   0  0  0  0  0  0  0  0  0  0  0  0
    4.3227  -14.3100   21.9564 H   0  0  0  0  0  0  0  0  0  0  0  0
    5.2120  -15.6109   24.1711 H   0  0  0  0  0  0  0  0  0  0  0  0
    4.8730  -19.1314   23.8531 H   0  0  0  0  0  0  0  0  0  0  0  0
    3.4719  -18.5361   24.8115 H   0  0  0  0  0  0  0  0  0  0  0  0
    5.1026  -17.8496   25.0776 H   0  0  0  0  0  0  0  0  0  0  0  0
    2.5956  -19.5286   22.3347 H   0  0  0  0  0  0  0  0  0  0  0  0
   -2.6215  -22.7653   20.2560 H   0  0  0  0  0  0  0  0  0  0  0  0
   -4.9954  -22.1806   18.4405 H   0  0  0  0  0  0  0  0  0  0  0  0
   -4.8107  -21.7944   20.1426 H   0  0  0  0  0  0  0  0  0  0  0  0
   -5.8267  -24.2206   18.9767 H   0  0  0  0  0  0  0  0  0  0  0  0
   -5.6957  -23.7916   20.6598 H   0  0  0  0  0  0  0  0  0  0  0  0
   -4.6124  -25.8433   20.0654 H   0  0  0  0  0  0  0  0  0  0  0  0
   -3.6414  -25.6165   18.0095 H   0  0  0  0  0  0  0  0  0  0  0  0
   -2.3655  -25.6986   19.1857 H   0  0  0  0  0  0  0  0  0  0  0  0
   -1.5095  -23.8268   18.3038 H   0  0  0  0  0  0  0  0  0  0  0  0
   -2.9358  -23.5650   17.3168 H   0  0  0  0  0  0  0  0  0  0  0  0
  1  2  1  0
  2  3  1  0
  3  4  1  0
  4  5  2  0
  4  6  1  0
  6  7  1  0
  7  8  2  0
  8  9  1  0
  9 10  2  0
 10 11  1  0
 11 12  2  0
 12 13  1  0
 13 14  1  0
 13 15  1  0
 15 16  2  0
  2 17  1  0
 17 18  1  0
 18 19  1  0
 19 20  1  0
 20 21  1  0
 21 22  1  0
 16  7  1  0
 22 17  1  0
 15 10  1  0
  1 23  1  0
  1 24  1  0
  1 25  1  0
  3 26  1  0
  3 27  1  0
  6 28  1  0
  8 29  1  0
  9 30  1  0
 11 31  1  0
 12 32  1  0
 14 33  1  0
 14 34  1  0
 14 35  1  0
 16 36  1  0
 17 37  1  0
 18 38  1  0
 18 39  1  0
 19 40  1  0
 19 41  1  0
 20 42  1  0
 21 43  1  0
 21 44  1  0
 22 45  1  0
 22 46  1  0
M  END
>  <Energy>  (646) 
72.635979368048993

>  <compound_id>  (646) 
26737

>  <target_id>  (646) 
1

>  <reference_id>  (646) 
40

>  <inspiration_ids>  (646) 
[40, 9]

>  <energy_score>  (646) 
-44.96231015400386

>  <distance_score>  (646) 
12.621913213850553

>  <path>  (646) 
/opt/xchem-fragalysis-2/maxwin/BulkDock/SCRATCH/511015/C26737-P40/C26737-P40.minimised.mol

>  <scratch_subdir>  (646) 
/opt/xchem-fragalysis-2/maxwin/BulkDock/SCRATCH/511015/C26737-P40

>  <fragmenstein_runtime>  (646) 
24.968053817749023

>  <fragmenstein_outcome>  (646) 
too moved

>  <fragmenstein_mode>  (646) 
expansion

>  <fragmenstein_error>  (646) 


$$$$
C26737-P9
     RDKit          3D

 46 48  0  0  0  0  0  0  0  0999 V2000
   -5.7728  -17.9275   18.5913 C   0  0  0  0  0  0  0  0  0  0  0  0
   -4.8683  -18.7792   19.3032 N   0  0  0  0  0  0  0  0  0  0  0  0
   -3.7603  -17.9226   19.9472 C   0  0  0  0  0  0  0  0  0  0  0  0
   -3.3165  -16.6428   20.8807 C   0  0  0  0  0  0  0  0  0  0  0  0
   -2.2193  -16.1847   20.5519 O   0  0  0  0  0  0  0  0  0  0  0  0
   -4.3398  -16.2241   22.1923 N   0  0  0  0  0  0  0  0  0  0  0  0
   -4.0761  -15.0357   23.6109 C   0  0  0  0  0  0  0  0  0  0  0  0
   -2.9700  -15.1950   24.6605 C   0  0  0  0  0  0  0  0  0  0  0  0
   -2.4249  -13.9380   25.7815 C   0  0  0  0  0  0  0  0  0  0  0  0
   -2.8716  -12.5321   25.5901 C   0  0  0  0  0  0  0  0  0  0  0  0
   -2.5602  -11.3716   26.1645 C   0  0  0  0  0  0  0  0  0  0  0  0
   -2.0564  -10.1470   24.8595 C   0  0  0  0  0  0  0  0  0  0  0  0
   -3.4403  -10.6608   23.8230 N   0  0  0  0  0  0  0  0  0  0  0  0
   -3.7503   -9.8088   22.6348 C   0  0  0  0  0  0  0  0  0  0  0  0
   -3.9583  -12.1680   24.4985 C   0  0  0  0  0  0  0  0  0  0  0  0
   -4.9281  -13.5065   23.8160 C   0  0  0  0  0  0  0  0  0  0  0  0
   -5.5255  -19.7809   20.1597 C   0  0  0  0  0  0  0  0  0  0  0  0
   -6.2393  -20.7393   19.2445 C   0  0  0  0  0  0  0  0  0  0  0  0
   -7.7086  -20.2777   19.0114 C   0  0  0  0  0  0  0  0  0  0  0  0
   -8.4801  -20.2973   20.2510 N   0  0  0  0  0  0  0  0  0  0  0  0
   -7.9691  -19.2307   21.0810 C   0  0  0  0  0  0  0  0  0  0  0  0
   -6.4916  -19.4376   21.3495 C   0  0  0  0  0  0  0  0  0  0  0  0
   -6.4802  -18.2893   17.8851 H   0  0  0  0  0  0  0  0  0  0  0  0
   -6.4257  -17.4976   19.3509 H   0  0  0  0  0  0  0  0  0  0  0  0
   -5.1906  -17.2192   17.9949 H   0  0  0  0  0  0  0  0  0  0  0  0
   -4.6684  -17.6099   20.4082 H   0  0  0  0  0  0  0  0  0  0  0  0
   -3.3597  -17.5177   19.0129 H   0  0  0  0  0  0  0  0  0  0  0  0
   -5.2192  -16.7414   22.1252 H   0  0  0  0  0  0  0  0  0  0  0  0
   -2.8384  -16.1803   25.1257 H   0  0  0  0  0  0  0  0  0  0  0  0
   -1.9690  -14.2021   26.7285 H   0  0  0  0  0  0  0  0  0  0  0  0
   -2.1243  -11.2415   27.1396 H   0  0  0  0  0  0  0  0  0  0  0  0
   -2.3729   -9.1429   24.9624 H   0  0  0  0  0  0  0  0  0  0  0  0
   -3.0734   -9.0765   22.3909 H   0  0  0  0  0  0  0  0  0  0  0  0
   -4.0377  -10.3667   21.7611 H   0  0  0  0  0  0  0  0  0  0  0  0
   -4.2611   -8.8665   22.7428 H   0  0  0  0  0  0  0  0  0  0  0  0
   -5.8690  -13.2008   23.3737 H   0  0  0  0  0  0  0  0  0  0  0  0
   -4.6933  -20.3534   20.5897 H   0  0  0  0  0  0  0  0  0  0  0  0
   -6.0738  -21.6942   19.7470 H   0  0  0  0  0  0  0  0  0  0  0  0
   -5.6861  -20.9292   18.3233 H   0  0  0  0  0  0  0  0  0  0  0  0
   -8.2148  -20.8543   18.2572 H   0  0  0  0  0  0  0  0  0  0  0  0
   -7.8222  -19.2759   18.6120 H   0  0  0  0  0  0  0  0  0  0  0  0
   -9.4466  -20.0655   20.0365 H   0  0  0  0  0  0  0  0  0  0  0  0
   -8.5115  -19.2265   22.0336 H   0  0  0  0  0  0  0  0  0  0  0  0
   -8.1508  -18.2499   20.6251 H   0  0  0  0  0  0  0  0  0  0  0  0
   -6.4042  -20.2655   22.0685 H   0  0  0  0  0  0  0  0  0  0  0  0
   -6.1994  -18.5457   21.8961 H   0  0  0  0  0  0  0  0  0  0  0  0
  1  2  1  0
  2  3  1  0
  3  4  1  0
  4  5  2  0
  4  6  1  0
  6  7  1  0
  7  8  2  0
  8  9  1  0
  9 10  2  0
 10 11  1  0
 11 12  2  0
 12 13  1  0
 13 14  1  0
 13 15  1  0
 15 16  2  0
  2 17  1  0
 17 18  1  0
 18 19  1  0
 19 20  1  0
 20 21  1  0
 21 22  1  0
 16  7  1  0
 22 17  1  0
 15 10  1  0
  1 23  1  0
  1 24  1  0
  1 25  1  0
  3 26  1  0
  3 27  1  0
  6 28  1  0
  8 29  1  0
  9 30  1  0
 11 31  1  0
 12 32  1  0
 14 33  1  0
 14 34  1  0
 14 35  1  0
 16 36  1  0
 17 37  1  0
 18 38  1  0
 18 39  1  0
 19 40  1  0
 19 41  1  0
 20 42  1  0
 21 43  1  0
 21 44  1  0
 22 45  1  0
 22 46  1  0
M  END
>  <Energy>  (647) 
655.82595108042597

>  <compound_id>  (647) 
26737

>  <target_id>  (647) 
1

>  <reference_id>  (647) 
9

>  <inspiration_ids>  (647) 
[40, 9]

>  <energy_score>  (647) 
538.2276615583762

>  <distance_score>  (647) 
10.173341772630325

>  <path>  (647) 
/opt/xchem-fragalysis-2/maxwin/BulkDock/SCRATCH/511015/C26737-P9/C26737-P9.minimised.mol

>  <scratch_subdir>  (647) 
/opt/xchem-fragalysis-2/maxwin/BulkDock/SCRATCH/511015/C26737-P9

>  <fragmenstein_runtime>  (647) 
15.981614589691162

>  <fragmenstein_outcome>  (647) 
too moved

>  <fragmenstein_mode>  (647) 
expansion

>  <fragmenstein_error>  (647) 


$$$$
C26738-P40
     RDKit          3D

 46 48  0  0  0  0  0  0  0  0999 V2000
   -6.2122  -17.1836   23.5184 C   0  0  0  0  0  0  0  0  0  0  0  0
   -5.0982  -15.4256   23.9074 C   0  0  0  0  0  0  0  0  0  0  0  0
   -3.8484  -14.5789   23.6367 C   0  0  0  0  0  0  0  0  0  0  0  0
   -3.9384  -12.7626   24.2691 C   0  0  0  0  0  0  0  0  0  0  0  0
   -3.1332  -12.3710   25.8702 C   0  0  0  0  0  0  0  0  0  0  0  0
   -4.2578  -12.0643   27.0104 C   0  0  0  0  0  0  0  0  0  0  0  0
   -5.9236  -12.0968   26.1269 N   0  0  0  0  0  0  0  0  0  0  0  0
   -5.4623  -12.3563   24.3917 C   0  0  0  0  0  0  0  0  0  0  0  0
   -5.6459  -13.6140   23.3311 C   0  0  0  0  0  0  0  0  0  0  0  0
   -4.6580  -15.1416   22.8249 C   0  0  0  0  0  0  0  0  0  0  0  0
   -4.7511  -16.5316   21.4063 N   0  0  0  0  0  0  0  0  0  0  0  0
   -6.2348  -17.4451   20.6593 C   0  0  0  0  0  0  0  0  0  0  0  0
   -7.3697  -17.3102   21.0775 O   0  0  0  0  0  0  0  0  0  0  0  0
   -6.2661  -18.5840   19.0549 C   0  0  0  0  0  0  0  0  0  0  0  0
   -7.6879  -19.7636   18.5283 N   0  0  0  0  0  0  0  0  0  0  0  0
   -8.4368  -19.7976   19.7987 C   0  0  0  0  0  0  0  0  0  0  0  0
   -8.9082  -20.3928   17.1688 C   0  0  0  0  0  0  0  0  0  0  0  0
   -9.9106  -19.4787   15.6908 C   0  0  0  0  0  0  0  0  0  0  0  0
  -10.4716  -20.0784   13.9354 C   0  0  0  0  0  0  0  0  0  0  0  0
  -10.1714  -21.4471   13.4543 N   0  0  0  0  0  0  0  0  0  0  0  0
   -9.4412  -22.2646   14.3552 C   0  0  0  0  0  0  0  0  0  0  0  0
   -9.1846  -21.9682   15.9261 C   0  0  0  0  0  0  0  0  0  0  0  0
   -5.7436  -17.8438   22.7400 H   0  0  0  0  0  0  0  0  0  0  0  0
   -7.1928  -16.9837   23.1153 H   0  0  0  0  0  0  0  0  0  0  0  0
   -6.3338  -18.0770   24.1497 H   0  0  0  0  0  0  0  0  0  0  0  0
   -2.8426  -14.9480   24.0146 H   0  0  0  0  0  0  0  0  0  0  0  0
   -2.2616  -12.9572   26.0991 H   0  0  0  0  0  0  0  0  0  0  0  0
   -4.3687  -11.9663   28.0836 H   0  0  0  0  0  0  0  0  0  0  0  0
   -6.3566  -11.2404   26.3650 H   0  0  0  0  0  0  0  0  0  0  0  0
   -6.1734  -13.0052   22.5901 H   0  0  0  0  0  0  0  0  0  0  0  0
   -3.9004  -16.8549   20.9613 H   0  0  0  0  0  0  0  0  0  0  0  0
   -6.2037  -17.9094   18.2013 H   0  0  0  0  0  0  0  0  0  0  0  0
   -5.4280  -19.2787   19.1496 H   0  0  0  0  0  0  0  0  0  0  0  0
   -7.7494  -19.8088   20.6503 H   0  0  0  0  0  0  0  0  0  0  0  0
   -9.0253  -20.7005   19.9298 H   0  0  0  0  0  0  0  0  0  0  0  0
   -9.0956  -18.9281   19.8805 H   0  0  0  0  0  0  0  0  0  0  0  0
   -9.5475  -20.0438   17.9194 H   0  0  0  0  0  0  0  0  0  0  0  0
   -9.8633  -18.3737   15.7183 H   0  0  0  0  0  0  0  0  0  0  0  0
   -9.5204  -20.3195   15.2625 H   0  0  0  0  0  0  0  0  0  0  0  0
  -10.0536  -19.4488   13.1604 H   0  0  0  0  0  0  0  0  0  0  0  0
  -11.5104  -19.9274   13.7128 H   0  0  0  0  0  0  0  0  0  0  0  0
  -10.9308  -21.9055   12.9682 H   0  0  0  0  0  0  0  0  0  0  0  0
   -9.8206  -23.2945   14.2778 H   0  0  0  0  0  0  0  0  0  0  0  0
   -8.4730  -22.3317   13.8457 H   0  0  0  0  0  0  0  0  0  0  0  0
   -8.1771  -22.3326   15.6256 H   0  0  0  0  0  0  0  0  0  0  0  0
   -9.6454  -22.8033   16.3498 H   0  0  0  0  0  0  0  0  0  0  0  0
  1  2  1  0
  2  3  2  0
  3  4  1  0
  4  5  1  0
  5  6  2  0
  6  7  1  0
  7  8  1  0
  8  9  1  0
  9 10  2  0
 10 11  1  0
 11 12  1  0
 12 13  2  0
 12 14  1  0
 14 15  1  0
 15 16  1  0
 15 17  1  0
 17 18  1  0
 18 19  1  0
 19 20  1  0
 20 21  1  0
 21 22  1  0
 10  2  1  0
 22 17  1  0
  8  4  2  0
  1 23  1  0
  1 24  1  0
  1 25  1  0
  3 26  1  0
  5 27  1  0
  6 28  1  0
  7 29  1  0
  9 30  1  0
 11 31  1  0
 14 32  1  0
 14 33  1  0
 16 34  1  0
 16 35  1  0
 16 36  1  0
 17 37  1  0
 18 38  1  0
 18 39  1  0
 19 40  1  0
 19 41  1  0
 20 42  1  0
 21 43  1  0
 21 44  1  0
 22 45  1  0
 22 46  1  0
M  END
>  <Energy>  (648) 
1680.011625616637

>  <compound_id>  (648) 
26738

>  <target_id>  (648) 
1

>  <reference_id>  (648) 
40

>  <inspiration_ids>  (648) 
[40, 9]

>  <energy_score>  (648) 
1585.463540269298

>  <distance_score>  (648) 
10.37826163392148

>  <path>  (648) 
/opt/xchem-fragalysis-2/maxwin/BulkDock/SCRATCH/511015/C26738-P40/C26738-P40.minimised.mol

>  <scratch_subdir>  (648) 
/opt/xchem-fragalysis-2/maxwin/BulkDock/SCRATCH/511015/C26738-P40

>  <fragmenstein_runtime>  (648) 
17.472764253616333

>  <fragmenstein_outcome>  (648) 
too moved

>  <fragmenstein_mode>  (648) 
expansion

>  <fragmenstein_error>  (648) 


$$$$
C26738-P9
     RDKit          3D

 46 48  0  0  0  0  0  0  0  0999 V2000
   -2.1611  -17.5525   25.5622 C   0  0  0  0  0  0  0  0  0  0  0  0
   -3.2071  -16.1633   24.4832 C   0  0  0  0  0  0  0  0  0  0  0  0
   -2.4661  -16.0175   26.1336 C   0  0  0  0  0  0  0  0  0  0  0  0
   -2.3080  -14.7288   26.3133 C   0  0  0  0  0  0  0  0  0  0  0  0
   -1.9683  -13.9384   27.3150 C   0  0  0  0  0  0  0  0  0  0  0  0
   -2.5299  -12.7458   26.9221 C   0  0  0  0  0  0  0  0  0  0  0  0
   -2.5197  -12.7929   25.6388 N   0  0  0  0  0  0  0  0  0  0  0  0
   -2.4725  -14.2739   25.0524 C   0  0  0  0  0  0  0  0  0  0  0  0
   -3.6771  -14.9914   23.7247 C   0  0  0  0  0  0  0  0  0  0  0  0
   -4.0543  -16.3297   22.5964 C   0  0  0  0  0  0  0  0  0  0  0  0
   -5.5977  -17.3691   21.6779 N   0  0  0  0  0  0  0  0  0  0  0  0
   -5.6964  -18.4802   20.0067 C   0  0  0  0  0  0  0  0  0  0  0  0
   -4.6732  -18.4834   19.3636 O   0  0  0  0  0  0  0  0  0  0  0  0
   -7.2099  -19.7047   18.9718 C   0  0  0  0  0  0  0  0  0  0  0  0
   -7.9943  -20.9468   17.4382 N   0  0  0  0  0  0  0  0  0  0  0  0
   -7.7176  -22.1329   15.7913 C   0  0  0  0  0  0  0  0  0  0  0  0
   -9.5407  -21.7014   16.3290 C   0  0  0  0  0  0  0  0  0  0  0  0
   -9.9931  -21.6764   14.3703 C   0  0  0  0  0  0  0  0  0  0  0  0
  -10.7362  -22.8138   13.3708 C   0  0  0  0  0  0  0  0  0  0  0  0
  -11.2668  -24.1058   13.7763 N   0  0  0  0  0  0  0  0  0  0  0  0
  -10.5552  -24.5959   14.9310 C   0  0  0  0  0  0  0  0  0  0  0  0
   -9.6270  -23.4980   15.5524 C   0  0  0  0  0  0  0  0  0  0  0  0
   -1.7547  -18.5674   25.3477 H   0  0  0  0  0  0  0  0  0  0  0  0
   -2.5795  -17.9977   26.4922 H   0  0  0  0  0  0  0  0  0  0  0  0
   -1.0763  -17.2883   25.8083 H   0  0  0  0  0  0  0  0  0  0  0  0
   -2.4125  -16.5306   27.1263 H   0  0  0  0  0  0  0  0  0  0  0  0
   -1.8479  -14.2888   28.3369 H   0  0  0  0  0  0  0  0  0  0  0  0
   -2.8403  -11.9001   27.5043 H   0  0  0  0  0  0  0  0  0  0  0  0
   -2.8018  -11.9980   25.0920 H   0  0  0  0  0  0  0  0  0  0  0  0
   -4.6245  -14.4046   23.6774 H   0  0  0  0  0  0  0  0  0  0  0  0
   -6.5194  -17.3557   22.1070 H   0  0  0  0  0  0  0  0  0  0  0  0
   -6.4049  -20.4491   18.8906 H   0  0  0  0  0  0  0  0  0  0  0  0
   -7.4129  -18.8664   18.3014 H   0  0  0  0  0  0  0  0  0  0  0  0
   -7.3756  -23.1431   15.9081 H   0  0  0  0  0  0  0  0  0  0  0  0
   -7.4120  -21.5919   14.8209 H   0  0  0  0  0  0  0  0  0  0  0  0
   -8.3702  -22.2379   15.0272 H   0  0  0  0  0  0  0  0  0  0  0  0
   -9.8570  -20.6976   16.1109 H   0  0  0  0  0  0  0  0  0  0  0  0
  -10.4165  -20.7005   14.1083 H   0  0  0  0  0  0  0  0  0  0  0  0
   -9.1214  -21.7961   13.7138 H   0  0  0  0  0  0  0  0  0  0  0  0
  -10.0134  -23.0413   12.5704 H   0  0  0  0  0  0  0  0  0  0  0  0
  -11.5241  -22.3219   12.8272 H   0  0  0  0  0  0  0  0  0  0  0  0
  -12.2705  -24.0525   13.9376 H   0  0  0  0  0  0  0  0  0  0  0  0
  -11.1738  -25.1735   15.6300 H   0  0  0  0  0  0  0  0  0  0  0  0
   -9.8984  -25.3932   14.5486 H   0  0  0  0  0  0  0  0  0  0  0  0
   -9.0929  -23.5316   14.6086 H   0  0  0  0  0  0  0  0  0  0  0  0
   -8.8889  -24.0456   16.0595 H   0  0  0  0  0  0  0  0  0  0  0  0
  1  2  1  0
  2  3  2  0
  3  4  1  0
  4  5  1  0
  5  6  2  0
  6  7  1  0
  7  8  1  0
  8  9  1  0
  9 10  2  0
 10 11  1  0
 11 12  1  0
 12 13  2  0
 12 14  1  0
 14 15  1  0
 15 16  1  0
 15 17  1  0
 17 18  1  0
 18 19  1  0
 19 20  1  0
 20 21  1  0
 21 22  1  0
 10  2  1  0
 22 17  1  0
  8  4  2  0
  1 23  1  0
  1 24  1  0
  1 25  1  0
  3 26  1  0
  5 27  1  0
  6 28  1  0
  7 29  1  0
  9 30  1  0
 11 31  1  0
 14 32  1  0
 14 33  1  0
 16 34  1  0
 16 35  1  0
 16 36  1  0
 17 37  1  0
 18 38  1  0
 18 39  1  0
 19 40  1  0
 19 41  1  0
 20 42  1  0
 21 43  1  0
 21 44  1  0
 22 45  1  0
 22 46  1  0
M  END
>  <Energy>  (649) 
2341.9623485280276

>  <compound_id>  (649) 
26738

>  <target_id>  (649) 
1

>  <reference_id>  (649) 
9

>  <inspiration_ids>  (649) 
[40, 9]

>  <energy_score>  (649) 
2247.414263180692

>  <distance_score>  (649) 
9.304451381460465

>  <path>  (649) 
/opt/xchem-fragalysis-2/maxwin/BulkDock/SCRATCH/511015/C26738-P9/C26738-P9.minimised.mol

>  <scratch_subdir>  (649) 
/opt/xchem-fragalysis-2/maxwin/BulkDock/SCRATCH/511015/C26738-P9

>  <fragmenstein_runtime>  (649) 
10.316890239715576

>  <fragmenstein_outcome>  (649) 
too moved

>  <fragmenstein_mode>  (649) 
expansion

>  <fragmenstein_error>  (649) 


$$$$
C26740-P40
     RDKit          3D

 50 52  0  0  0  0  0  0  0  0999 V2000
  -12.1012  -12.2126   18.3769 C   0  0  0  0  0  0  0  0  0  0  0  0
  -10.8411  -11.6876   17.6626 C   0  0  0  0  0  0  0  0  0  0  0  0
  -11.0533  -11.1407   16.2234 C   0  0  0  0  0  0  0  0  0  0  0  0
   -9.4622  -12.1177   18.1018 N   0  0  0  0  0  0  0  0  0  0  0  0
   -8.1111  -11.6086   17.6978 C   0  0  0  0  0  0  0  0  0  0  0  0
   -7.8024  -10.7974   16.8567 O   0  0  0  0  0  0  0  0  0  0  0  0
   -6.8308  -12.1830   18.6699 C   0  0  0  0  0  0  0  0  0  0  0  0
   -4.9298  -12.0512   19.0399 C   0  0  0  0  0  0  0  0  0  0  0  0
   -4.1920  -10.7746   20.1743 C   0  0  0  0  0  0  0  0  0  0  0  0
   -3.2424   -9.8599   19.1242 C   0  0  0  0  0  0  0  0  0  0  0  0
   -3.1803   -8.7942   19.8804 N   0  0  0  0  0  0  0  0  0  0  0  0
   -3.3793   -9.4347   21.5755 C   0  0  0  0  0  0  0  0  0  0  0  0
   -3.5772   -9.0376   22.7514 C   0  0  0  0  0  0  0  0  0  0  0  0
   -3.3908   -7.5054   22.2587 C   0  0  0  0  0  0  0  0  0  0  0  0
   -4.2300   -6.6335   21.9337 C   0  0  0  0  0  0  0  0  0  0  0  0
   -4.6804   -7.8107   21.7024 C   0  0  0  0  0  0  0  0  0  0  0  0
   -4.4985   -9.8282   21.8611 C   0  0  0  0  0  0  0  0  0  0  0  0
   -9.8879  -13.5130   17.1903 C   0  0  0  0  0  0  0  0  0  0  0  0
  -10.2300  -14.7240   18.1059 C   0  0  0  0  0  0  0  0  0  0  0  0
  -10.7157  -15.9703   17.3573 C   0  0  0  0  0  0  0  0  0  0  0  0
   -9.7521  -16.4156   16.3598 N   0  0  0  0  0  0  0  0  0  0  0  0
   -9.4910  -15.3400   15.4085 C   0  0  0  0  0  0  0  0  0  0  0  0
   -8.9966  -14.0272   16.0614 C   0  0  0  0  0  0  0  0  0  0  0  0
  -12.5297  -13.0965   17.8960 H   0  0  0  0  0  0  0  0  0  0  0  0
  -11.8901  -12.4414   19.4266 H   0  0  0  0  0  0  0  0  0  0  0  0
  -12.8872  -11.4480   18.3599 H   0  0  0  0  0  0  0  0  0  0  0  0
  -10.7812  -10.7073   18.1709 H   0  0  0  0  0  0  0  0  0  0  0  0
  -11.2513  -11.9100   15.4722 H   0  0  0  0  0  0  0  0  0  0  0  0
  -10.1843  -10.5676   15.8870 H   0  0  0  0  0  0  0  0  0  0  0  0
  -11.9168  -10.4651   16.2080 H   0  0  0  0  0  0  0  0  0  0  0  0
   -7.2750  -12.9008   19.3399 H   0  0  0  0  0  0  0  0  0  0  0  0
   -7.1837  -11.3456   19.2305 H   0  0  0  0  0  0  0  0  0  0  0  0
   -4.4380  -11.7929   18.1080 H   0  0  0  0  0  0  0  0  0  0  0  0
   -4.4515  -12.7389   19.6499 H   0  0  0  0  0  0  0  0  0  0  0  0
   -2.9361  -10.0493   18.0993 H   0  0  0  0  0  0  0  0  0  0  0  0
   -2.9090   -7.8299   19.7045 H   0  0  0  0  0  0  0  0  0  0  0  0
   -3.3017   -9.6625   23.6080 H   0  0  0  0  0  0  0  0  0  0  0  0
   -2.3970   -7.2506   22.3548 H   0  0  0  0  0  0  0  0  0  0  0  0
   -4.4455   -5.6320   21.6991 H   0  0  0  0  0  0  0  0  0  0  0  0
   -5.7243   -7.2490   21.4673 H   0  0  0  0  0  0  0  0  0  0  0  0
  -10.8338  -13.4116   16.6468 H   0  0  0  0  0  0  0  0  0  0  0  0
   -9.3671  -14.9985   18.6932 H   0  0  0  0  0  0  0  0  0  0  0  0
  -11.0197  -14.4501   18.8031 H   0  0  0  0  0  0  0  0  0  0  0  0
  -10.8815  -16.7767   18.0795 H   0  0  0  0  0  0  0  0  0  0  0  0
  -11.6847  -15.7738   16.8823 H   0  0  0  0  0  0  0  0  0  0  0  0
   -8.8793  -16.6718   16.8240 H   0  0  0  0  0  0  0  0  0  0  0  0
  -10.4023  -15.1396   14.8307 H   0  0  0  0  0  0  0  0  0  0  0  0
   -8.7419  -15.6800   14.6843 H   0  0  0  0  0  0  0  0  0  0  0  0
   -7.9773  -14.1804   16.4019 H   0  0  0  0  0  0  0  0  0  0  0  0
   -9.0418  -13.2656   15.2806 H   0  0  0  0  0  0  0  0  0  0  0  0
  1  2  1  0
  2  3  1  0
  2  4  1  0
  4  5  1  0
  5  6  2  0
  5  7  1  0
  7  8  1  0
  8  9  1  0
  9 10  2  0
 10 11  1  0
 11 12  1  0
 12 13  2  0
 13 14  1  0
 14 15  2  0
 15 16  1  0
 16 17  2  0
  4 18  1  0
 18 19  1  0
 19 20  1  0
 20 21  1  0
 21 22  1  0
 22 23  1  0
 17  9  1  0
 23 18  1  0
 17 12  1  0
  1 24  1  0
  1 25  1  0
  1 26  1  0
  2 27  1  0
  3 28  1  0
  3 29  1  0
  3 30  1  0
  7 31  1  0
  7 32  1  0
  8 33  1  0
  8 34  1  0
 10 35  1  0
 11 36  1  0
 13 37  1  0
 14 38  1  0
 15 39  1  0
 16 40  1  0
 18 41  1  0
 19 42  1  0
 19 43  1  0
 20 44  1  0
 20 45  1  0
 21 46  1  0
 22 47  1  0
 22 48  1  0
 23 49  1  0
 23 50  1  0
M  END
>  <Energy>  (650) 
958.63683888439823

>  <compound_id>  (650) 
26740

>  <target_id>  (650) 
1

>  <reference_id>  (650) 
40

>  <inspiration_ids>  (650) 
[40, 9]

>  <energy_score>  (650) 
918.8933513807501

>  <distance_score>  (650) 
11.242133870237682

>  <path>  (650) 
/opt/xchem-fragalysis-2/maxwin/BulkDock/SCRATCH/511015/C26740-P40/C26740-P40.minimised.mol

>  <scratch_subdir>  (650) 
/opt/xchem-fragalysis-2/maxwin/BulkDock/SCRATCH/511015/C26740-P40

>  <fragmenstein_runtime>  (650) 
38.970197916030884

>  <fragmenstein_outcome>  (650) 
too moved

>  <fragmenstein_mode>  (650) 
expansion

>  <fragmenstein_error>  (650) 


$$$$
C26740-P9
     RDKit          3D

 50 52  0  0  0  0  0  0  0  0999 V2000
   -6.0471  -20.4363   20.6480 C   0  0  0  0  0  0  0  0  0  0  0  0
   -5.6647  -18.9337   20.4375 C   0  0  0  0  0  0  0  0  0  0  0  0
   -5.4217  -18.5851   18.9171 C   0  0  0  0  0  0  0  0  0  0  0  0
   -5.6147  -17.6920   21.7126 N   0  0  0  0  0  0  0  0  0  0  0  0
   -4.4703  -16.2790   21.9784 C   0  0  0  0  0  0  0  0  0  0  0  0
   -3.6289  -16.0410   21.1237 O   0  0  0  0  0  0  0  0  0  0  0  0
   -4.3354  -14.8229   23.5738 C   0  0  0  0  0  0  0  0  0  0  0  0
   -4.2302  -12.7893   24.3861 C   0  0  0  0  0  0  0  0  0  0  0  0
   -3.1318  -12.5291   26.1049 C   0  0  0  0  0  0  0  0  0  0  0  0
   -3.2908  -12.3823   27.4214 C   0  0  0  0  0  0  0  0  0  0  0  0
   -2.5065  -11.4717   26.3431 N   0  0  0  0  0  0  0  0  0  0  0  0
   -2.1951   -9.6747   26.0091 C   0  0  0  0  0  0  0  0  0  0  0  0
   -2.2805   -7.8705   26.6985 C   0  0  0  0  0  0  0  0  0  0  0  0
   -1.6351   -7.7243   28.3673 C   0  0  0  0  0  0  0  0  0  0  0  0
   -0.9091   -8.9200   29.0243 C   0  0  0  0  0  0  0  0  0  0  0  0
   -1.3535  -10.4153   28.5292 C   0  0  0  0  0  0  0  0  0  0  0  0
   -2.1271  -11.0816   27.0512 C   0  0  0  0  0  0  0  0  0  0  0  0
   -7.1176  -17.5851   20.9463 C   0  0  0  0  0  0  0  0  0  0  0  0
   -7.8647  -18.5754   21.9166 C   0  0  0  0  0  0  0  0  0  0  0  0
   -9.0749  -19.4468   21.5857 C   0  0  0  0  0  0  0  0  0  0  0  0
   -9.1324  -20.0145   20.2763 N   0  0  0  0  0  0  0  0  0  0  0  0
   -8.5632  -19.2032   19.2339 C   0  0  0  0  0  0  0  0  0  0  0  0
   -7.9515  -17.8458   19.6131 C   0  0  0  0  0  0  0  0  0  0  0  0
   -6.3527  -20.8473   19.6860 H   0  0  0  0  0  0  0  0  0  0  0  0
   -6.7839  -20.6818   21.4032 H   0  0  0  0  0  0  0  0  0  0  0  0
   -5.1691  -21.0468   20.9078 H   0  0  0  0  0  0  0  0  0  0  0  0
   -4.6394  -19.2322   20.4937 H   0  0  0  0  0  0  0  0  0  0  0  0
   -6.2470  -18.7692   18.2385 H   0  0  0  0  0  0  0  0  0  0  0  0
   -5.0499  -17.5800   18.7507 H   0  0  0  0  0  0  0  0  0  0  0  0
   -4.6986  -19.2965   18.4945 H   0  0  0  0  0  0  0  0  0  0  0  0
   -5.2009  -15.1943   24.0285 H   0  0  0  0  0  0  0  0  0  0  0  0
   -3.4714  -15.2497   24.1106 H   0  0  0  0  0  0  0  0  0  0  0  0
   -5.3066  -12.4664   24.4616 H   0  0  0  0  0  0  0  0  0  0  0  0
   -3.7953  -11.8303   24.0835 H   0  0  0  0  0  0  0  0  0  0  0  0
   -4.1159  -12.1561   28.0816 H   0  0  0  0  0  0  0  0  0  0  0  0
   -1.9847  -11.7779   25.3721 H   0  0  0  0  0  0  0  0  0  0  0  0
   -2.2108   -7.0115   26.0541 H   0  0  0  0  0  0  0  0  0  0  0  0
   -1.6875   -6.7696   28.8843 H   0  0  0  0  0  0  0  0  0  0  0  0
   -0.5406   -8.8164   30.0469 H   0  0  0  0  0  0  0  0  0  0  0  0
   -1.7557  -11.0173   29.3822 H   0  0  0  0  0  0  0  0  0  0  0  0
   -7.4665  -16.5998   21.1778 H   0  0  0  0  0  0  0  0  0  0  0  0
   -7.1901  -19.1583   22.5528 H   0  0  0  0  0  0  0  0  0  0  0  0
   -8.1812  -17.8507   22.5998 H   0  0  0  0  0  0  0  0  0  0  0  0
   -9.1143  -20.2624   22.3204 H   0  0  0  0  0  0  0  0  0  0  0  0
  -10.0171  -18.9329   21.7497 H   0  0  0  0  0  0  0  0  0  0  0  0
   -8.7706  -20.9619   20.2501 H   0  0  0  0  0  0  0  0  0  0  0  0
   -7.8794  -19.8206   18.6519 H   0  0  0  0  0  0  0  0  0  0  0  0
   -9.3666  -18.9718   18.5325 H   0  0  0  0  0  0  0  0  0  0  0  0
   -8.8395  -17.2028   19.7389 H   0  0  0  0  0  0  0  0  0  0  0  0
   -7.5324  -17.4477   18.7071 H   0  0  0  0  0  0  0  0  0  0  0  0
  1  2  1  0
  2  3  1  0
  2  4  1  0
  4  5  1  0
  5  6  2  0
  5  7  1  0
  7  8  1  0
  8  9  1  0
  9 10  2  0
 10 11  1  0
 11 12  1  0
 12 13  2  0
 13 14  1  0
 14 15  2  0
 15 16  1  0
 16 17  2  0
  4 18  1  0
 18 19  1  0
 19 20  1  0
 20 21  1  0
 21 22  1  0
 22 23  1  0
 17  9  1  0
 23 18  1  0
 17 12  1  0
  1 24  1  0
  1 25  1  0
  1 26  1  0
  2 27  1  0
  3 28  1  0
  3 29  1  0
  3 30  1  0
  7 31  1  0
  7 32  1  0
  8 33  1  0
  8 34  1  0
 10 35  1  0
 11 36  1  0
 13 37  1  0
 14 38  1  0
 15 39  1  0
 16 40  1  0
 18 41  1  0
 19 42  1  0
 19 43  1  0
 20 44  1  0
 20 45  1  0
 21 46  1  0
 22 47  1  0
 22 48  1  0
 23 49  1  0
 23 50  1  0
M  END
>  <Energy>  (651) 
1478.5316226461548

>  <compound_id>  (651) 
26740

>  <target_id>  (651) 
1

>  <reference_id>  (651) 
9

>  <inspiration_ids>  (651) 
[40, 9]

>  <energy_score>  (651) 
1438.7881351425108

>  <distance_score>  (651) 
8.912873219615966

>  <path>  (651) 
/opt/xchem-fragalysis-2/maxwin/BulkDock/SCRATCH/511015/C26740-P9/C26740-P9.minimised.mol

>  <scratch_subdir>  (651) 
/opt/xchem-fragalysis-2/maxwin/BulkDock/SCRATCH/511015/C26740-P9

>  <fragmenstein_runtime>  (651) 
24.396597385406494

>  <fragmenstein_outcome>  (651) 
too moved

>  <fragmenstein_mode>  (651) 
expansion

>  <fragmenstein_error>  (651) 


$$$$
C26741-P40
     RDKit          3D

 53 55  0  0  0  0  0  0  0  0999 V2000
    2.3682   -8.7566   26.4028 C   0  0  0  0  0  0  0  0  0  0  0  0
    1.3705   -9.9382   26.5993 C   0  0  0  0  0  0  0  0  0  0  0  0
   -0.2673  -10.4113   27.9110 C   0  0  0  0  0  0  0  0  0  0  0  0
   -1.7701  -11.3347   27.0355 C   0  0  0  0  0  0  0  0  0  0  0  0
   -1.1411  -12.9192   26.1007 C   0  0  0  0  0  0  0  0  0  0  0  0
    0.4568  -12.5841   24.9324 C   0  0  0  0  0  0  0  0  0  0  0  0
    0.3701  -12.6652   23.4966 C   0  0  0  0  0  0  0  0  0  0  0  0
   -0.4644  -13.9492   22.9432 C   0  0  0  0  0  0  0  0  0  0  0  0
   -0.9699  -15.1649   21.7158 C   0  0  0  0  0  0  0  0  0  0  0  0
   -2.0486  -14.9598   20.3437 C   0  0  0  0  0  0  0  0  0  0  0  0
   -2.3623  -13.8100   20.2390 O   0  0  0  0  0  0  0  0  0  0  0  0
   -2.2981  -16.0213   19.5328 N   0  0  0  0  0  0  0  0  0  0  0  0
   -2.8903  -16.0879   18.2859 C   0  0  0  0  0  0  0  0  0  0  0  0
   -3.8633  -16.8262   17.2056 C   0  0  0  0  0  0  0  0  0  0  0  0
   -2.2404  -14.4412   17.5983 C   0  0  0  0  0  0  0  0  0  0  0  0
   -3.9320  -16.9169   20.0246 C   0  0  0  0  0  0  0  0  0  0  0  0
   -5.1409  -17.1484   21.1227 C   0  0  0  0  0  0  0  0  0  0  0  0
   -6.2295  -18.2548   21.5770 C   0  0  0  0  0  0  0  0  0  0  0  0
   -6.5538  -19.2868   20.6264 N   0  0  0  0  0  0  0  0  0  0  0  0
   -6.2113  -18.7534   19.3282 C   0  0  0  0  0  0  0  0  0  0  0  0
   -4.7230  -18.4450   19.2926 C   0  0  0  0  0  0  0  0  0  0  0  0
    1.3091  -11.7160   23.0560 C   0  0  0  0  0  0  0  0  0  0  0  0
    2.1833  -11.2110   24.0033 N   0  0  0  0  0  0  0  0  0  0  0  0
    1.4510  -11.1206   25.1536 C   0  0  0  0  0  0  0  0  0  0  0  0
    2.4225   -8.0499   27.2313 H   0  0  0  0  0  0  0  0  0  0  0  0
    2.2008   -8.2801   25.4278 H   0  0  0  0  0  0  0  0  0  0  0  0
    3.3607   -9.0841   26.1038 H   0  0  0  0  0  0  0  0  0  0  0  0
   -0.4579   -9.7791   28.8030 H   0  0  0  0  0  0  0  0  0  0  0  0
   -2.7552  -11.6088   27.4815 H   0  0  0  0  0  0  0  0  0  0  0  0
   -1.9713  -13.4435   25.6087 H   0  0  0  0  0  0  0  0  0  0  0  0
   -1.1885  -14.2540   23.6681 H   0  0  0  0  0  0  0  0  0  0  0  0
    0.4764  -14.3407   23.3021 H   0  0  0  0  0  0  0  0  0  0  0  0
    0.1029  -15.3888   21.3081 H   0  0  0  0  0  0  0  0  0  0  0  0
   -0.8532  -16.2572   21.6301 H   0  0  0  0  0  0  0  0  0  0  0  0
   -2.3899  -16.8540   17.8119 H   0  0  0  0  0  0  0  0  0  0  0  0
   -3.6009  -17.8396   16.8981 H   0  0  0  0  0  0  0  0  0  0  0  0
   -3.8850  -16.2719   16.2610 H   0  0  0  0  0  0  0  0  0  0  0  0
   -4.8167  -16.7665   17.6990 H   0  0  0  0  0  0  0  0  0  0  0  0
   -1.1489  -14.3968   17.5219 H   0  0  0  0  0  0  0  0  0  0  0  0
   -2.7930  -14.2177   16.6826 H   0  0  0  0  0  0  0  0  0  0  0  0
   -2.3793  -13.4931   18.1224 H   0  0  0  0  0  0  0  0  0  0  0  0
   -3.2517  -17.1021   20.8436 H   0  0  0  0  0  0  0  0  0  0  0  0
   -6.0341  -16.6831   20.7250 H   0  0  0  0  0  0  0  0  0  0  0  0
   -4.6126  -16.6935   21.9299 H   0  0  0  0  0  0  0  0  0  0  0  0
   -6.1483  -18.5793   22.6093 H   0  0  0  0  0  0  0  0  0  0  0  0
   -7.1903  -17.7290   21.7164 H   0  0  0  0  0  0  0  0  0  0  0  0
   -7.5529  -19.4995   20.6942 H   0  0  0  0  0  0  0  0  0  0  0  0
   -6.4732  -19.5744   18.6804 H   0  0  0  0  0  0  0  0  0  0  0  0
   -6.7489  -17.8795   18.9765 H   0  0  0  0  0  0  0  0  0  0  0  0
   -4.3711  -19.2455   19.9465 H   0  0  0  0  0  0  0  0  0  0  0  0
   -4.4472  -18.7099   18.2817 H   0  0  0  0  0  0  0  0  0  0  0  0
    1.5290  -11.3011   22.0936 H   0  0  0  0  0  0  0  0  0  0  0  0
    2.8982  -10.5406   23.7770 H   0  0  0  0  0  0  0  0  0  0  0  0
  1  2  1  0
  2  3  2  0
  3  4  1  0
  4  5  2  0
  5  6  1  0
  6  7  1  0
  7  8  1  0
  8  9  1  0
  9 10  1  0
 10 11  2  0
 10 12  1  0
 12 13  1  0
 13 14  1  0
 13 15  1  0
 12 16  1  0
 16 17  1  0
 17 18  1  0
 18 19  1  0
 19 20  1  0
 20 21  1  0
  7 22  2  0
 22 23  1  0
 23 24  1  0
 24  2  1  0
 24  6  2  0
 21 16  1  0
  1 25  1  0
  1 26  1  0
  1 27  1  0
  3 28  1  0
  4 29  1  0
  5 30  1  0
  8 31  1  0
  8 32  1  0
  9 33  1  0
  9 34  1  0
 13 35  1  0
 14 36  1  0
 14 37  1  0
 14 38  1  0
 15 39  1  0
 15 40  1  0
 15 41  1  0
 16 42  1  0
 17 43  1  0
 17 44  1  0
 18 45  1  0
 18 46  1  0
 19 47  1  0
 20 48  1  0
 20 49  1  0
 21 50  1  0
 21 51  1  0
 22 52  1  0
 23 53  1  0
M  END
>  <Energy>  (652) 
1244.1060948083204

>  <compound_id>  (652) 
26741

>  <target_id>  (652) 
1

>  <reference_id>  (652) 
40

>  <inspiration_ids>  (652) 
[40, 9]

>  <energy_score>  (652) 
1208.897359908328

>  <distance_score>  (652) 
9.684963230943158

>  <path>  (652) 
/opt/xchem-fragalysis-2/maxwin/BulkDock/SCRATCH/511015/C26741-P40/C26741-P40.minimised.mol

>  <scratch_subdir>  (652) 
/opt/xchem-fragalysis-2/maxwin/BulkDock/SCRATCH/511015/C26741-P40

>  <fragmenstein_runtime>  (652) 
20.04538083076477

>  <fragmenstein_outcome>  (652) 
too moved

>  <fragmenstein_mode>  (652) 
expansion

>  <fragmenstein_error>  (652) 


$$$$
C26741-P9
     RDKit          3D

 53 55  0  0  0  0  0  0  0  0999 V2000
   -1.4961  -14.3649   30.4010 C   0  0  0  0  0  0  0  0  0  0  0  0
   -2.3872  -15.3065   29.6314 C   0  0  0  0  0  0  0  0  0  0  0  0
   -3.1552  -16.2048   30.3357 C   0  0  0  0  0  0  0  0  0  0  0  0
   -4.0718  -16.9490   29.6443 C   0  0  0  0  0  0  0  0  0  0  0  0
   -4.1632  -16.8925   28.2310 C   0  0  0  0  0  0  0  0  0  0  0  0
   -3.3260  -16.1203   27.3442 C   0  0  0  0  0  0  0  0  0  0  0  0
   -3.0641  -15.7798   25.6337 C   0  0  0  0  0  0  0  0  0  0  0  0
   -3.9394  -15.4309   23.7998 C   0  0  0  0  0  0  0  0  0  0  0  0
   -4.5203  -16.3025   21.9556 C   0  0  0  0  0  0  0  0  0  0  0  0
   -5.9382  -17.5280   21.1957 C   0  0  0  0  0  0  0  0  0  0  0  0
   -6.5127  -18.0881   22.1045 O   0  0  0  0  0  0  0  0  0  0  0  0
   -6.2796  -17.9860   19.4512 N   0  0  0  0  0  0  0  0  0  0  0  0
   -7.0548  -19.0031   18.9288 C   0  0  0  0  0  0  0  0  0  0  0  0
   -6.6495  -19.9032   20.3310 C   0  0  0  0  0  0  0  0  0  0  0  0
   -7.8488  -20.3110   18.6143 C   0  0  0  0  0  0  0  0  0  0  0  0
   -7.6457  -17.2401   18.1502 C   0  0  0  0  0  0  0  0  0  0  0  0
   -7.4502  -16.1877   16.6732 C   0  0  0  0  0  0  0  0  0  0  0  0
   -8.1542  -15.9857   15.0728 C   0  0  0  0  0  0  0  0  0  0  0  0
   -9.5253  -16.3732   14.8831 N   0  0  0  0  0  0  0  0  0  0  0  0
  -10.0512  -17.2564   15.8652 C   0  0  0  0  0  0  0  0  0  0  0  0
   -9.3250  -17.4940   17.2144 C   0  0  0  0  0  0  0  0  0  0  0  0
   -2.4402  -14.4031   26.1922 C   0  0  0  0  0  0  0  0  0  0  0  0
   -2.3817  -14.1614   27.5007 N   0  0  0  0  0  0  0  0  0  0  0  0
   -2.5746  -15.2673   28.2170 C   0  0  0  0  0  0  0  0  0  0  0  0
   -0.4559  -14.5129   30.0988 H   0  0  0  0  0  0  0  0  0  0  0  0
   -1.7986  -13.3316   30.2333 H   0  0  0  0  0  0  0  0  0  0  0  0
   -1.5405  -14.5652   31.4752 H   0  0  0  0  0  0  0  0  0  0  0  0
   -3.0945  -16.2893   31.4159 H   0  0  0  0  0  0  0  0  0  0  0  0
   -4.7387  -17.6180   30.1846 H   0  0  0  0  0  0  0  0  0  0  0  0
   -4.9690  -17.5374   27.9163 H   0  0  0  0  0  0  0  0  0  0  0  0
   -4.8478  -14.8550   23.8953 H   0  0  0  0  0  0  0  0  0  0  0  0
   -3.1927  -14.7027   23.6120 H   0  0  0  0  0  0  0  0  0  0  0  0
   -3.8054  -16.1756   21.0937 H   0  0  0  0  0  0  0  0  0  0  0  0
   -3.8290  -16.9971   22.1171 H   0  0  0  0  0  0  0  0  0  0  0  0
   -6.1510  -19.1978   18.3984 H   0  0  0  0  0  0  0  0  0  0  0  0
   -6.6880  -20.9801   20.3269 H   0  0  0  0  0  0  0  0  0  0  0  0
   -5.5963  -19.7645   20.5996 H   0  0  0  0  0  0  0  0  0  0  0  0
   -7.3511  -19.6826   21.1323 H   0  0  0  0  0  0  0  0  0  0  0  0
   -8.5169  -20.6332   19.4242 H   0  0  0  0  0  0  0  0  0  0  0  0
   -7.1965  -21.0948   18.2960 H   0  0  0  0  0  0  0  0  0  0  0  0
   -8.5617  -20.2338   17.8070 H   0  0  0  0  0  0  0  0  0  0  0  0
   -8.1011  -16.4912   18.7977 H   0  0  0  0  0  0  0  0  0  0  0  0
   -7.7074  -17.1635   16.4122 H   0  0  0  0  0  0  0  0  0  0  0  0
   -6.4229  -15.8798   16.5655 H   0  0  0  0  0  0  0  0  0  0  0  0
   -7.5747  -16.4378   14.2578 H   0  0  0  0  0  0  0  0  0  0  0  0
   -8.0806  -14.9352   14.7761 H   0  0  0  0  0  0  0  0  0  0  0  0
   -9.7405  -16.6365   13.9251 H   0  0  0  0  0  0  0  0  0  0  0  0
  -11.0485  -16.8507   16.1089 H   0  0  0  0  0  0  0  0  0  0  0  0
  -10.3813  -18.1957   15.4492 H   0  0  0  0  0  0  0  0  0  0  0  0
   -9.7876  -16.5409   17.5407 H   0  0  0  0  0  0  0  0  0  0  0  0
   -9.7652  -18.4164   17.5125 H   0  0  0  0  0  0  0  0  0  0  0  0
   -2.2200  -13.5188   25.6301 H   0  0  0  0  0  0  0  0  0  0  0  0
   -2.2923  -13.2445   27.8975 H   0  0  0  0  0  0  0  0  0  0  0  0
  1  2  1  0
  2  3  2  0
  3  4  1  0
  4  5  2  0
  5  6  1  0
  6  7  1  0
  7  8  1  0
  8  9  1  0
  9 10  1  0
 10 11  2  0
 10 12  1  0
 12 13  1  0
 13 14  1  0
 13 15  1  0
 12 16  1  0
 16 17  1  0
 17 18  1  0
 18 19  1  0
 19 20  1  0
 20 21  1  0
  7 22  2  0
 22 23  1  0
 23 24  1  0
 24  2  1  0
 24  6  2  0
 21 16  1  0
  1 25  1  0
  1 26  1  0
  1 27  1  0
  3 28  1  0
  4 29  1  0
  5 30  1  0
  8 31  1  0
  8 32  1  0
  9 33  1  0
  9 34  1  0
 13 35  1  0
 14 36  1  0
 14 37  1  0
 14 38  1  0
 15 39  1  0
 15 40  1  0
 15 41  1  0
 16 42  1  0
 17 43  1  0
 17 44  1  0
 18 45  1  0
 18 46  1  0
 19 47  1  0
 20 48  1  0
 20 49  1  0
 21 50  1  0
 21 51  1  0
 22 52  1  0
 23 53  1  0
M  END
>  <Energy>  (653) 
1068.9127679620397

>  <compound_id>  (653) 
26741

>  <target_id>  (653) 
1

>  <reference_id>  (653) 
9

>  <inspiration_ids>  (653) 
[40, 9]

>  <energy_score>  (653) 
1033.7040330620512

>  <distance_score>  (653) 
10.391582142885406

>  <path>  (653) 
/opt/xchem-fragalysis-2/maxwin/BulkDock/SCRATCH/511015/C26741-P9/C26741-P9.minimised.mol

>  <scratch_subdir>  (653) 
/opt/xchem-fragalysis-2/maxwin/BulkDock/SCRATCH/511015/C26741-P9

>  <fragmenstein_runtime>  (653) 
20.90138530731201

>  <fragmenstein_outcome>  (653) 
too moved

>  <fragmenstein_mode>  (653) 
expansion

>  <fragmenstein_error>  (653) 


$$$$
C26742-P40
     RDKit          3D

 49 51  0  0  0  0  0  0  0  0999 V2000
   -5.5629  -10.5208   16.9363 C   0  0  0  0  0  0  0  0  0  0  0  0
   -6.3199  -11.3916   17.8746 C   0  0  0  0  0  0  0  0  0  0  0  0
   -6.7758  -12.5901   18.1717 N   0  0  0  0  0  0  0  0  0  0  0  0
   -5.0917  -12.1637   19.5128 C   0  0  0  0  0  0  0  0  0  0  0  0
   -4.1261  -10.8409   21.0065 C   0  0  0  0  0  0  0  0  0  0  0  0
   -3.8577   -9.7545   21.9347 C   0  0  0  0  0  0  0  0  0  0  0  0
   -3.7974   -8.5277   22.5298 N   0  0  0  0  0  0  0  0  0  0  0  0
   -3.3610   -9.2392   24.1100 C   0  0  0  0  0  0  0  0  0  0  0  0
   -2.9203   -8.0517   25.8412 C   0  0  0  0  0  0  0  0  0  0  0  0
   -3.0349   -7.5833   26.9965 C   0  0  0  0  0  0  0  0  0  0  0  0
   -3.1331   -8.6624   26.0866 C   0  0  0  0  0  0  0  0  0  0  0  0
   -2.6122   -9.6022   24.3198 C   0  0  0  0  0  0  0  0  0  0  0  0
   -3.5561  -10.5099   23.0432 C   0  0  0  0  0  0  0  0  0  0  0  0
   -7.0858  -14.1170   16.7984 C   0  0  0  0  0  0  0  0  0  0  0  0
   -6.8354  -14.1622   15.7277 O   0  0  0  0  0  0  0  0  0  0  0  0
   -8.1362  -15.7273   17.2911 N   0  0  0  0  0  0  0  0  0  0  0  0
   -8.5994  -17.0919   16.3978 C   0  0  0  0  0  0  0  0  0  0  0  0
   -9.9767  -18.2941   15.9432 C   0  0  0  0  0  0  0  0  0  0  0  0
  -10.7048  -18.2044   14.4338 C   0  0  0  0  0  0  0  0  0  0  0  0
  -10.5980  -19.8945   13.5807 C   0  0  0  0  0  0  0  0  0  0  0  0
  -10.1779  -21.3703   13.7361 N   0  0  0  0  0  0  0  0  0  0  0  0
   -9.4770  -21.6683   14.9929 C   0  0  0  0  0  0  0  0  0  0  0  0
   -9.6437  -20.2440   16.1208 C   0  0  0  0  0  0  0  0  0  0  0  0
   -5.7589  -10.4653   15.9078 H   0  0  0  0  0  0  0  0  0  0  0  0
   -6.0984   -9.5800   17.0038 H   0  0  0  0  0  0  0  0  0  0  0  0
   -4.4869  -10.4470   17.1133 H   0  0  0  0  0  0  0  0  0  0  0  0
   -7.1256  -10.9579   18.5158 H   0  0  0  0  0  0  0  0  0  0  0  0
   -7.1633  -11.2237   17.2162 H   0  0  0  0  0  0  0  0  0  0  0  0
   -5.8288  -11.8320   20.3199 H   0  0  0  0  0  0  0  0  0  0  0  0
   -4.3312  -11.8048   18.8040 H   0  0  0  0  0  0  0  0  0  0  0  0
   -4.8315   -9.7079   22.0606 H   0  0  0  0  0  0  0  0  0  0  0  0
   -4.2621   -7.6253   22.5835 H   0  0  0  0  0  0  0  0  0  0  0  0
   -1.7568   -7.8166   26.6572 H   0  0  0  0  0  0  0  0  0  0  0  0
   -3.6356   -7.5368   27.8592 H   0  0  0  0  0  0  0  0  0  0  0  0
   -4.4654   -8.4854   26.7114 H   0  0  0  0  0  0  0  0  0  0  0  0
   -1.8339  -10.3046   24.7057 H   0  0  0  0  0  0  0  0  0  0  0  0
   -8.4388  -15.6288   18.2556 H   0  0  0  0  0  0  0  0  0  0  0  0
   -8.5612  -16.5998   15.4246 H   0  0  0  0  0  0  0  0  0  0  0  0
   -9.3569  -16.9904   17.1632 H   0  0  0  0  0  0  0  0  0  0  0  0
  -10.8116  -17.8501   16.4988 H   0  0  0  0  0  0  0  0  0  0  0  0
  -11.7291  -17.8118   14.5061 H   0  0  0  0  0  0  0  0  0  0  0  0
  -10.2166  -17.4336   13.8088 H   0  0  0  0  0  0  0  0  0  0  0  0
   -9.9311  -19.6390   12.7578 H   0  0  0  0  0  0  0  0  0  0  0  0
  -11.6375  -20.1033   13.4370 H   0  0  0  0  0  0  0  0  0  0  0  0
   -9.7002  -21.7174   12.9101 H   0  0  0  0  0  0  0  0  0  0  0  0
   -9.7422  -22.6157   15.4472 H   0  0  0  0  0  0  0  0  0  0  0  0
   -8.4614  -21.9468   14.6716 H   0  0  0  0  0  0  0  0  0  0  0  0
   -9.0540  -20.3981   17.0539 H   0  0  0  0  0  0  0  0  0  0  0  0
   -9.6904  -19.9322   15.1770 H   0  0  0  0  0  0  0  0  0  0  0  0
  1  2  1  0
  2  3  1  0
  3  4  1  0
  4  5  1  0
  5  6  2  0
  6  7  1  0
  7  8  1  0
  8  9  2  0
  9 10  1  0
 10 11  2  0
 11 12  1  0
 12 13  2  0
  3 14  1  0
 14 15  2  0
 14 16  1  0
 16 17  1  0
 17 18  1  0
 18 19  1  0
 19 20  1  0
 20 21  1  0
 21 22  1  0
 22 23  1  0
 13  5  1  0
 23 18  1  0
 13  8  1  0
  1 24  1  0
  1 25  1  0
  1 26  1  0
  2 27  1  0
  2 28  1  0
  4 29  1  0
  4 30  1  0
  6 31  1  0
  7 32  1  0
  9 33  1  0
 10 34  1  0
 11 35  1  0
 12 36  1  0
 16 37  1  0
 17 38  1  0
 17 39  1  0
 18 40  1  0
 19 41  1  0
 19 42  1  0
 20 43  1  0
 20 44  1  0
 21 45  1  0
 22 46  1  0
 22 47  1  0
 23 48  1  0
 23 49  1  0
M  END
>  <Energy>  (654) 
2987.1520324684361

>  <compound_id>  (654) 
26742

>  <target_id>  (654) 
1

>  <reference_id>  (654) 
40

>  <inspiration_ids>  (654) 
[40, 9]

>  <energy_score>  (654) 
3025.2659632044742

>  <distance_score>  (654) 
7.646053931601466

>  <path>  (654) 
/opt/xchem-fragalysis-2/maxwin/BulkDock/SCRATCH/511015/C26742-P40/C26742-P40.minimised.mol

>  <scratch_subdir>  (654) 
/opt/xchem-fragalysis-2/maxwin/BulkDock/SCRATCH/511015/C26742-P40

>  <fragmenstein_runtime>  (654) 
21.012665271759033

>  <fragmenstein_outcome>  (654) 
too moved

>  <fragmenstein_mode>  (654) 
expansion

>  <fragmenstein_error>  (654) 


$$$$
C26742-P9
     RDKit          3D

 49 51  0  0  0  0  0  0  0  0999 V2000
   -1.8713  -13.8064   21.0933 C   0  0  0  0  0  0  0  0  0  0  0  0
   -1.1768  -14.7596   22.9624 C   0  0  0  0  0  0  0  0  0  0  0  0
   -1.0385  -15.1534   21.7916 N   0  0  0  0  0  0  0  0  0  0  0  0
   -0.2099  -13.3614   22.4001 C   0  0  0  0  0  0  0  0  0  0  0  0
    1.0134  -12.4699   23.8284 C   0  0  0  0  0  0  0  0  0  0  0  0
    2.4307  -12.6436   23.6336 C   0  0  0  0  0  0  0  0  0  0  0  0
    2.4104  -11.5639   22.7924 N   0  0  0  0  0  0  0  0  0  0  0  0
    2.9501  -10.5761   23.4188 C   0  0  0  0  0  0  0  0  0  0  0  0
    3.5126   -9.2933   23.2321 C   0  0  0  0  0  0  0  0  0  0  0  0
    3.6124   -8.3734   24.2831 C   0  0  0  0  0  0  0  0  0  0  0  0
    3.1642   -8.7901   25.4703 C   0  0  0  0  0  0  0  0  0  0  0  0
    2.7017  -10.1317   25.4156 C   0  0  0  0  0  0  0  0  0  0  0  0
    2.0032  -10.9780   24.3612 C   0  0  0  0  0  0  0  0  0  0  0  0
   -2.3645  -15.6718   20.4997 C   0  0  0  0  0  0  0  0  0  0  0  0
   -3.3578  -15.6789   20.9660 O   0  0  0  0  0  0  0  0  0  0  0  0
   -2.1980  -16.1197   19.1063 N   0  0  0  0  0  0  0  0  0  0  0  0
   -3.4639  -16.9290   17.8192 C   0  0  0  0  0  0  0  0  0  0  0  0
   -4.6988  -18.2310   18.5567 C   0  0  0  0  0  0  0  0  0  0  0  0
   -6.1637  -18.3415   19.0457 C   0  0  0  0  0  0  0  0  0  0  0  0
   -6.4088  -19.5921   19.9658 C   0  0  0  0  0  0  0  0  0  0  0  0
   -6.2247  -20.8770   19.3130 N   0  0  0  0  0  0  0  0  0  0  0  0
   -4.8249  -20.9722   18.9318 C   0  0  0  0  0  0  0  0  0  0  0  0
   -4.2699  -19.7789   18.1389 C   0  0  0  0  0  0  0  0  0  0  0  0
   -1.3369  -12.9023   20.9075 H   0  0  0  0  0  0  0  0  0  0  0  0
   -1.8964  -14.0185   20.0239 H   0  0  0  0  0  0  0  0  0  0  0  0
   -2.7628  -13.2509   20.9270 H   0  0  0  0  0  0  0  0  0  0  0  0
   -1.0740  -14.0184   23.7859 H   0  0  0  0  0  0  0  0  0  0  0  0
   -2.1395  -14.7829   23.5954 H   0  0  0  0  0  0  0  0  0  0  0  0
   -0.5659  -12.3974   22.5329 H   0  0  0  0  0  0  0  0  0  0  0  0
    0.3289  -13.9836   23.2539 H   0  0  0  0  0  0  0  0  0  0  0  0
    3.1469  -13.4103   23.3438 H   0  0  0  0  0  0  0  0  0  0  0  0
    1.7177  -11.2953   22.0936 H   0  0  0  0  0  0  0  0  0  0  0  0
    3.8770   -9.0237   22.2686 H   0  0  0  0  0  0  0  0  0  0  0  0
    4.1155   -7.4249   24.1658 H   0  0  0  0  0  0  0  0  0  0  0  0
    3.3623   -8.2621   26.3894 H   0  0  0  0  0  0  0  0  0  0  0  0
    3.7813  -10.5127   25.3611 H   0  0  0  0  0  0  0  0  0  0  0  0
   -1.2629  -15.9540   18.8534 H   0  0  0  0  0  0  0  0  0  0  0  0
   -3.9333  -16.3003   17.0366 H   0  0  0  0  0  0  0  0  0  0  0  0
   -2.9369  -17.6563   17.2015 H   0  0  0  0  0  0  0  0  0  0  0  0
   -4.5037  -18.0030   19.5985 H   0  0  0  0  0  0  0  0  0  0  0  0
   -6.4439  -17.5094   19.6890 H   0  0  0  0  0  0  0  0  0  0  0  0
   -6.8611  -18.3515   18.2235 H   0  0  0  0  0  0  0  0  0  0  0  0
   -7.4053  -19.5932   20.4107 H   0  0  0  0  0  0  0  0  0  0  0  0
   -5.7552  -19.5403   20.8379 H   0  0  0  0  0  0  0  0  0  0  0  0
   -6.8151  -20.9348   18.4810 H   0  0  0  0  0  0  0  0  0  0  0  0
   -4.2211  -21.1036   19.8390 H   0  0  0  0  0  0  0  0  0  0  0  0
   -4.6816  -21.8884   18.3477 H   0  0  0  0  0  0  0  0  0  0  0  0
   -3.2045  -20.0029   18.0372 H   0  0  0  0  0  0  0  0  0  0  0  0
   -4.4875  -19.8671   17.1092 H   0  0  0  0  0  0  0  0  0  0  0  0
  1  2  1  0
  2  3  1  0
  3  4  1  0
  4  5  1  0
  5  6  2  0
  6  7  1  0
  7  8  1  0
  8  9  2  0
  9 10  1  0
 10 11  2  0
 11 12  1  0
 12 13  2  0
  3 14  1  0
 14 15  2  0
 14 16  1  0
 16 17  1  0
 17 18  1  0
 18 19  1  0
 19 20  1  0
 20 21  1  0
 21 22  1  0
 22 23  1  0
 13  5  1  0
 23 18  1  0
 13  8  1  0
  1 24  1  0
  1 25  1  0
  1 26  1  0
  2 27  1  0
  2 28  1  0
  4 29  1  0
  4 30  1  0
  6 31  1  0
  7 32  1  0
  9 33  1  0
 10 34  1  0
 11 35  1  0
 12 36  1  0
 16 37  1  0
 17 38  1  0
 17 39  1  0
 18 40  1  0
 19 41  1  0
 19 42  1  0
 20 43  1  0
 20 44  1  0
 21 45  1  0
 22 46  1  0
 22 47  1  0
 23 48  1  0
 23 49  1  0
M  END
>  <Energy>  (655) 
1440.669117144374

>  <compound_id>  (655) 
26742

>  <target_id>  (655) 
1

>  <reference_id>  (655) 
9

>  <inspiration_ids>  (655) 
[40, 9]

>  <energy_score>  (655) 
1478.7830478804028

>  <distance_score>  (655) 
9.393792060368733

>  <path>  (655) 
/opt/xchem-fragalysis-2/maxwin/BulkDock/SCRATCH/511015/C26742-P9/C26742-P9.minimised.mol

>  <scratch_subdir>  (655) 
/opt/xchem-fragalysis-2/maxwin/BulkDock/SCRATCH/511015/C26742-P9

>  <fragmenstein_runtime>  (655) 
18.86591148376465

>  <fragmenstein_outcome>  (655) 
too moved

>  <fragmenstein_mode>  (655) 
expansion

>  <fragmenstein_error>  (655) 


$$$$
C26743-P40
     RDKit          3D

 45 47  0  0  0  0  0  0  0  0999 V2000
   -1.8330  -16.9591   25.6501 C   0  0  0  0  0  0  0  0  0  0  0  0
   -3.3189  -16.0799   24.9918 N   0  0  0  0  0  0  0  0  0  0  0  0
   -3.8886  -15.7957   23.1895 C   0  0  0  0  0  0  0  0  0  0  0  0
   -3.4623  -14.7922   22.8010 O   0  0  0  0  0  0  0  0  0  0  0  0
   -4.8622  -16.8985   21.5302 C   0  0  0  0  0  0  0  0  0  0  0  0
   -5.4702  -18.3392   20.2188 O   0  0  0  0  0  0  0  0  0  0  0  0
   -5.5645  -19.4079   18.5180 C   0  0  0  0  0  0  0  0  0  0  0  0
   -6.6340  -20.9104   17.3919 C   0  0  0  0  0  0  0  0  0  0  0  0
   -7.6338  -20.1737   18.1804 C   0  0  0  0  0  0  0  0  0  0  0  0
   -8.9041  -20.6158   17.7476 C   0  0  0  0  0  0  0  0  0  0  0  0
   -9.4066  -21.1457   16.4089 N   0  0  0  0  0  0  0  0  0  0  0  0
   -9.0463  -22.2130   15.5422 C   0  0  0  0  0  0  0  0  0  0  0  0
   -7.5238  -22.1413   15.7439 C   0  0  0  0  0  0  0  0  0  0  0  0
   -2.3954  -15.0433   26.1324 C   0  0  0  0  0  0  0  0  0  0  0  0
   -2.0863  -13.8165   25.4544 C   0  0  0  0  0  0  0  0  0  0  0  0
   -2.6475  -12.6762   25.6922 C   0  0  0  0  0  0  0  0  0  0  0  0
   -2.7251  -12.8063   26.9805 C   0  0  0  0  0  0  0  0  0  0  0  0
   -2.7466  -11.8563   27.9966 C   0  0  0  0  0  0  0  0  0  0  0  0
   -2.7387  -12.3492   29.2647 C   0  0  0  0  0  0  0  0  0  0  0  0
   -2.5018  -13.7407   29.3119 N   0  0  0  0  0  0  0  0  0  0  0  0
   -2.2201  -14.2153   27.9675 C   0  0  0  0  0  0  0  0  0  0  0  0
   -2.0676  -15.4108   27.4851 C   0  0  0  0  0  0  0  0  0  0  0  0
   -2.3694  -17.4580   26.4893 H   0  0  0  0  0  0  0  0  0  0  0  0
   -1.6473  -17.9697   25.3357 H   0  0  0  0  0  0  0  0  0  0  0  0
   -0.9930  -16.7738   26.3272 H   0  0  0  0  0  0  0  0  0  0  0  0
   -3.9399  -16.9353   20.9642 H   0  0  0  0  0  0  0  0  0  0  0  0
   -5.5685  -17.5624   22.0529 H   0  0  0  0  0  0  0  0  0  0  0  0
   -5.4820  -18.5511   17.8378 H   0  0  0  0  0  0  0  0  0  0  0  0
   -4.5938  -19.8929   18.6507 H   0  0  0  0  0  0  0  0  0  0  0  0
   -6.1623  -21.7269   17.9724 H   0  0  0  0  0  0  0  0  0  0  0  0
   -7.5951  -19.0788   18.0527 H   0  0  0  0  0  0  0  0  0  0  0  0
   -7.5172  -20.3145   19.2667 H   0  0  0  0  0  0  0  0  0  0  0  0
   -9.0865  -21.2684   18.5713 H   0  0  0  0  0  0  0  0  0  0  0  0
   -9.4181  -19.6789   18.0040 H   0  0  0  0  0  0  0  0  0  0  0  0
   -9.7113  -20.3920   15.8066 H   0  0  0  0  0  0  0  0  0  0  0  0
   -9.4486  -23.2096   15.6726 H   0  0  0  0  0  0  0  0  0  0  0  0
   -9.3315  -21.9993   14.5028 H   0  0  0  0  0  0  0  0  0  0  0  0
   -7.3579  -21.8468   14.6374 H   0  0  0  0  0  0  0  0  0  0  0  0
   -7.2247  -23.1593   15.7472 H   0  0  0  0  0  0  0  0  0  0  0  0
   -1.8392  -14.0827   24.4506 H   0  0  0  0  0  0  0  0  0  0  0  0
   -2.8750  -11.9553   24.9544 H   0  0  0  0  0  0  0  0  0  0  0  0
   -2.0443  -11.0889   27.8020 H   0  0  0  0  0  0  0  0  0  0  0  0
   -2.2767  -11.7144   29.9264 H   0  0  0  0  0  0  0  0  0  0  0  0
   -2.2965  -14.2833   30.1397 H   0  0  0  0  0  0  0  0  0  0  0  0
   -2.2017  -16.3076   28.0634 H   0  0  0  0  0  0  0  0  0  0  0  0
  1  2  1  0
  2  3  1  0
  3  4  2  0
  3  5  1  0
  5  6  1  0
  6  7  1  0
  7  8  1  0
  8  9  1  0
  9 10  1  0
 10 11  1  0
 11 12  1  0
 12 13  1  0
  2 14  1  0
 14 15  2  0
 15 16  1  0
 16 17  2  0
 17 18  1  0
 18 19  2  0
 19 20  1  0
 20 21  1  0
 21 22  2  0
 13  8  1  0
 22 14  1  0
 21 17  1  0
  1 23  1  0
  1 24  1  0
  1 25  1  0
  5 26  1  0
  5 27  1  0
  7 28  1  0
  7 29  1  0
  8 30  1  0
  9 31  1  0
  9 32  1  0
 10 33  1  0
 10 34  1  0
 11 35  1  0
 12 36  1  0
 12 37  1  0
 13 38  1  0
 13 39  1  0
 15 40  1  0
 16 41  1  0
 18 42  1  0
 19 43  1  0
 20 44  1  0
 22 45  1  0
M  END
>  <Energy>  (656) 
1433.2976360655659

>  <compound_id>  (656) 
26743

>  <target_id>  (656) 
1

>  <reference_id>  (656) 
40

>  <inspiration_ids>  (656) 
[40, 9]

>  <energy_score>  (656) 
1321.0355659911309

>  <distance_score>  (656) 
8.955079978778015

>  <path>  (656) 
/opt/xchem-fragalysis-2/maxwin/BulkDock/SCRATCH/511015/C26743-P40/C26743-P40.minimised.mol

>  <scratch_subdir>  (656) 
/opt/xchem-fragalysis-2/maxwin/BulkDock/SCRATCH/511015/C26743-P40

>  <fragmenstein_runtime>  (656) 
13.027833938598633

>  <fragmenstein_outcome>  (656) 
too moved

>  <fragmenstein_mode>  (656) 
expansion

>  <fragmenstein_error>  (656) 


$$$$
C26743-P9
     RDKit          3D

 45 47  0  0  0  0  0  0  0  0999 V2000
   -0.3344   -8.1350   18.3003 C   0  0  0  0  0  0  0  0  0  0  0  0
   -0.8226   -9.1822   19.3520 N   0  0  0  0  0  0  0  0  0  0  0  0
   -2.2341   -9.4472   19.1902 C   0  0  0  0  0  0  0  0  0  0  0  0
   -3.1795   -8.9186   19.6933 O   0  0  0  0  0  0  0  0  0  0  0  0
   -2.6085  -11.0143   18.0974 C   0  0  0  0  0  0  0  0  0  0  0  0
   -2.8992  -12.8013   18.0806 O   0  0  0  0  0  0  0  0  0  0  0  0
   -2.8986  -14.2626   17.0163 C   0  0  0  0  0  0  0  0  0  0  0  0
   -3.9173  -15.9554   16.5771 C   0  0  0  0  0  0  0  0  0  0  0  0
   -4.0829  -17.3051   17.3691 C   0  0  0  0  0  0  0  0  0  0  0  0
   -5.1565  -18.2646   16.8515 C   0  0  0  0  0  0  0  0  0  0  0  0
   -4.6588  -19.0655   15.7337 N   0  0  0  0  0  0  0  0  0  0  0  0
   -3.7816  -18.2889   14.8728 C   0  0  0  0  0  0  0  0  0  0  0  0
   -3.9696  -16.7487   14.9873 C   0  0  0  0  0  0  0  0  0  0  0  0
    0.0724   -8.0676   20.4630 C   0  0  0  0  0  0  0  0  0  0  0  0
   -0.2245   -7.5184   21.7536 C   0  0  0  0  0  0  0  0  0  0  0  0
    0.5505   -7.0596   23.1644 C   0  0  0  0  0  0  0  0  0  0  0  0
    2.0318   -7.8092   23.8395 C   0  0  0  0  0  0  0  0  0  0  0  0
    3.1697   -7.7272   24.7459 C   0  0  0  0  0  0  0  0  0  0  0  0
    3.6730   -8.9988   24.7464 C   0  0  0  0  0  0  0  0  0  0  0  0
    3.0860   -9.6500   23.6867 N   0  0  0  0  0  0  0  0  0  0  0  0
    2.4298   -8.6905   22.8003 C   0  0  0  0  0  0  0  0  0  0  0  0
    1.1602   -8.6322   21.4569 C   0  0  0  0  0  0  0  0  0  0  0  0
    0.7517   -8.1756   18.1501 H   0  0  0  0  0  0  0  0  0  0  0  0
   -0.6850   -7.1169   18.4286 H   0  0  0  0  0  0  0  0  0  0  0  0
   -0.8230   -8.3970   17.3558 H   0  0  0  0  0  0  0  0  0  0  0  0
   -3.5321  -11.0738   18.6658 H   0  0  0  0  0  0  0  0  0  0  0  0
   -1.6151  -11.3484   18.4026 H   0  0  0  0  0  0  0  0  0  0  0  0
   -2.1917  -14.6857   17.7383 H   0  0  0  0  0  0  0  0  0  0  0  0
   -2.2254  -13.9167   16.3014 H   0  0  0  0  0  0  0  0  0  0  0  0
   -4.9410  -15.8047   16.9334 H   0  0  0  0  0  0  0  0  0  0  0  0
   -3.1688  -17.8576   17.2319 H   0  0  0  0  0  0  0  0  0  0  0  0
   -4.3710  -17.1442   18.4044 H   0  0  0  0  0  0  0  0  0  0  0  0
   -5.4576  -18.9498   17.6530 H   0  0  0  0  0  0  0  0  0  0  0  0
   -6.0467  -17.6929   16.5655 H   0  0  0  0  0  0  0  0  0  0  0  0
   -4.1140  -19.8477   16.1087 H   0  0  0  0  0  0  0  0  0  0  0  0
   -2.7390  -18.5629   15.0719 H   0  0  0  0  0  0  0  0  0  0  0  0
   -3.9668  -18.5886   13.8344 H   0  0  0  0  0  0  0  0  0  0  0  0
   -4.9716  -16.6224   14.5647 H   0  0  0  0  0  0  0  0  0  0  0  0
   -3.2223  -16.2950   14.3194 H   0  0  0  0  0  0  0  0  0  0  0  0
   -1.3062   -7.4788   21.8341 H   0  0  0  0  0  0  0  0  0  0  0  0
    0.6047   -5.9351   23.2363 H   0  0  0  0  0  0  0  0  0  0  0  0
    3.4211   -6.9453   25.4503 H   0  0  0  0  0  0  0  0  0  0  0  0
    4.3786   -9.5166   25.3736 H   0  0  0  0  0  0  0  0  0  0  0  0
    3.1033  -10.6383   23.4738 H   0  0  0  0  0  0  0  0  0  0  0  0
    1.3986   -7.4101   21.0053 H   0  0  0  0  0  0  0  0  0  0  0  0
  1  2  1  0
  2  3  1  0
  3  4  2  0
  3  5  1  0
  5  6  1  0
  6  7  1  0
  7  8  1  0
  8  9  1  0
  9 10  1  0
 10 11  1  0
 11 12  1  0
 12 13  1  0
  2 14  1  0
 14 15  2  0
 15 16  1  0
 16 17  2  0
 17 18  1  0
 18 19  2  0
 19 20  1  0
 20 21  1  0
 21 22  2  0
 13  8  1  0
 22 14  1  0
 21 17  1  0
  1 23  1  0
  1 24  1  0
  1 25  1  0
  5 26  1  0
  5 27  1  0
  7 28  1  0
  7 29  1  0
  8 30  1  0
  9 31  1  0
  9 32  1  0
 10 33  1  0
 10 34  1  0
 11 35  1  0
 12 36  1  0
 12 37  1  0
 13 38  1  0
 13 39  1  0
 15 40  1  0
 16 41  1  0
 18 42  1  0
 19 43  1  0
 20 44  1  0
 22 45  1  0
M  END
>  <Energy>  (657) 
854.98727224465574

>  <compound_id>  (657) 
26743

>  <target_id>  (657) 
1

>  <reference_id>  (657) 
9

>  <inspiration_ids>  (657) 
[40, 9]

>  <energy_score>  (657) 
742.7252021702184

>  <distance_score>  (657) 
10.460894802251731

>  <path>  (657) 
/opt/xchem-fragalysis-2/maxwin/BulkDock/SCRATCH/511015/C26743-P9/C26743-P9.minimised.mol

>  <scratch_subdir>  (657) 
/opt/xchem-fragalysis-2/maxwin/BulkDock/SCRATCH/511015/C26743-P9

>  <fragmenstein_runtime>  (657) 
11.360443353652954

>  <fragmenstein_outcome>  (657) 
too moved

>  <fragmenstein_mode>  (657) 
expansion

>  <fragmenstein_error>  (657) 


$$$$
C26764-P40
     RDKit          3D

 45 47  0  0  0  0  0  0  0  0999 V2000
    4.5750  -10.4207   20.9566 N   0  0  0  0  0  0  0  0  0  0  0  0
    3.6122  -10.4092   20.3081 C   0  0  0  0  0  0  0  0  0  0  0  0
    2.4548  -10.4127   19.4698 C   0  0  0  0  0  0  0  0  0  0  0  0
    1.4678   -9.4534   19.4123 C   0  0  0  0  0  0  0  0  0  0  0  0
    0.5198   -9.8796   18.5106 N   0  0  0  0  0  0  0  0  0  0  0  0
    0.8877  -11.0944   17.9627 C   0  0  0  0  0  0  0  0  0  0  0  0
    0.2008  -11.9715   17.0704 C   0  0  0  0  0  0  0  0  0  0  0  0
    0.7593  -13.2480   16.7869 C   0  0  0  0  0  0  0  0  0  0  0  0
   -0.0186  -14.3177   15.9830 C   0  0  0  0  0  0  0  0  0  0  0  0
   -0.4469  -13.9482   14.9268 O   0  0  0  0  0  0  0  0  0  0  0  0
   -0.0238  -15.6389   16.6014 N   0  0  0  0  0  0  0  0  0  0  0  0
   -0.4725  -16.9637   16.0776 C   0  0  0  0  0  0  0  0  0  0  0  0
   -1.9973  -17.2758   16.0882 C   0  0  0  0  0  0  0  0  0  0  0  0
   -2.4577  -18.8026   16.2532 C   0  0  0  0  0  0  0  0  0  0  0  0
   -4.0229  -18.8771   16.4920 C   0  0  0  0  0  0  0  0  0  0  0  0
   -4.4518  -18.2728   14.7850 C   0  0  0  0  0  0  0  0  0  0  0  0
   -6.0149  -18.8022   14.0202 C   0  0  0  0  0  0  0  0  0  0  0  0
   -6.9288  -20.7123   14.5208 N   0  0  0  0  0  0  0  0  0  0  0  0
   -6.7312  -21.0058   16.6852 C   0  0  0  0  0  0  0  0  0  0  0  0
   -4.7718  -20.5348   17.2066 C   0  0  0  0  0  0  0  0  0  0  0  0
    2.0426  -13.5290   17.2806 C   0  0  0  0  0  0  0  0  0  0  0  0
    2.7230  -12.6437   18.1476 C   0  0  0  0  0  0  0  0  0  0  0  0
    2.1174  -11.4313   18.5371 C   0  0  0  0  0  0  0  0  0  0  0  0
    1.3394   -8.5190   19.9407 H   0  0  0  0  0  0  0  0  0  0  0  0
   -0.3525   -9.4097   18.3040 H   0  0  0  0  0  0  0  0  0  0  0  0
   -0.7835  -11.7140   16.6862 H   0  0  0  0  0  0  0  0  0  0  0  0
    0.5001  -15.6017   17.4650 H   0  0  0  0  0  0  0  0  0  0  0  0
   -0.0996  -17.0386   15.0504 H   0  0  0  0  0  0  0  0  0  0  0  0
    0.0558  -17.7082   16.6814 H   0  0  0  0  0  0  0  0  0  0  0  0
   -2.3860  -16.8713   15.1484 H   0  0  0  0  0  0  0  0  0  0  0  0
   -2.4644  -16.6725   16.8718 H   0  0  0  0  0  0  0  0  0  0  0  0
   -2.1828  -19.3369   15.3347 H   0  0  0  0  0  0  0  0  0  0  0  0
   -1.8940  -19.3371   17.0153 H   0  0  0  0  0  0  0  0  0  0  0  0
   -4.3816  -18.0986   17.1786 H   0  0  0  0  0  0  0  0  0  0  0  0
   -3.6685  -18.5609   14.0690 H   0  0  0  0  0  0  0  0  0  0  0  0
   -4.4968  -17.1767   14.8402 H   0  0  0  0  0  0  0  0  0  0  0  0
   -6.5703  -17.7977   14.2277 H   0  0  0  0  0  0  0  0  0  0  0  0
   -5.8285  -18.8545   12.8988 H   0  0  0  0  0  0  0  0  0  0  0  0
   -6.5471  -21.4906   13.9799 H   0  0  0  0  0  0  0  0  0  0  0  0
   -6.4366  -21.8623   17.4233 H   0  0  0  0  0  0  0  0  0  0  0  0
   -7.5160  -20.5266   17.4095 H   0  0  0  0  0  0  0  0  0  0  0  0
   -4.7955  -20.3958   18.3002 H   0  0  0  0  0  0  0  0  0  0  0  0
   -4.0949  -21.3711   16.9768 H   0  0  0  0  0  0  0  0  0  0  0  0
    2.5252  -14.4690   17.0190 H   0  0  0  0  0  0  0  0  0  0  0  0
    3.6945  -12.9282   18.5462 H   0  0  0  0  0  0  0  0  0  0  0  0
  1  2  3  0
  2  3  1  0
  3  4  2  0
  4  5  1  0
  5  6  1  0
  6  7  2  0
  7  8  1  0
  8  9  1  0
  9 10  2  0
  9 11  1  0
 11 12  1  0
 12 13  1  0
 13 14  1  0
 14 15  1  0
 15 16  1  0
 16 17  1  0
 17 18  1  0
 18 19  1  0
 19 20  1  0
  8 21  2  0
 21 22  1  0
 22 23  2  0
 23  3  1  0
 23  6  1  0
 20 15  1  0
  4 24  1  0
  5 25  1  0
  7 26  1  0
 11 27  1  0
 12 28  1  0
 12 29  1  0
 13 30  1  0
 13 31  1  0
 14 32  1  0
 14 33  1  0
 15 34  1  0
 16 35  1  0
 16 36  1  0
 17 37  1  0
 17 38  1  0
 18 39  1  0
 19 40  1  0
 19 41  1  0
 20 42  1  0
 20 43  1  0
 21 44  1  0
 22 45  1  0
M  END
>  <Energy>  (658) 
588.10437660367506

>  <compound_id>  (658) 
26764

>  <target_id>  (658) 
1

>  <reference_id>  (658) 
40

>  <inspiration_ids>  (658) 
[40, 9]

>  <energy_score>  (658) 
523.0278437243046

>  <distance_score>  (658) 
11.80600896783532

>  <path>  (658) 
/opt/xchem-fragalysis-2/maxwin/BulkDock/SCRATCH/511015/C26764-P40/C26764-P40.minimised.mol

>  <scratch_subdir>  (658) 
/opt/xchem-fragalysis-2/maxwin/BulkDock/SCRATCH/511015/C26764-P40

>  <fragmenstein_runtime>  (658) 
14.365884065628052

>  <fragmenstein_outcome>  (658) 
too moved

>  <fragmenstein_mode>  (658) 
expansion

>  <fragmenstein_error>  (658) 


$$$$
C26764-P9
     RDKit          3D

 45 47  0  0  0  0  0  0  0  0999 V2000
   -1.6411   -8.7453   32.2106 N   0  0  0  0  0  0  0  0  0  0  0  0
   -1.5056   -9.5729   31.4076 C   0  0  0  0  0  0  0  0  0  0  0  0
   -1.3097  -10.2078   30.1200 C   0  0  0  0  0  0  0  0  0  0  0  0
   -0.4884   -9.4176   29.3659 C   0  0  0  0  0  0  0  0  0  0  0  0
   -0.6319   -9.8272   28.0971 N   0  0  0  0  0  0  0  0  0  0  0  0
   -1.7350  -10.9943   27.6897 C   0  0  0  0  0  0  0  0  0  0  0  0
   -2.1405  -12.2988   26.3875 C   0  0  0  0  0  0  0  0  0  0  0  0
   -2.6274  -13.5254   25.9954 C   0  0  0  0  0  0  0  0  0  0  0  0
   -2.7782  -14.7026   24.2647 C   0  0  0  0  0  0  0  0  0  0  0  0
   -1.6809  -14.7665   23.7259 O   0  0  0  0  0  0  0  0  0  0  0  0
   -4.3195  -15.4981   23.4237 N   0  0  0  0  0  0  0  0  0  0  0  0
   -4.5337  -16.6627   21.7083 C   0  0  0  0  0  0  0  0  0  0  0  0
   -5.6682  -18.0716   20.5084 C   0  0  0  0  0  0  0  0  0  0  0  0
   -5.9557  -19.5741   19.0106 C   0  0  0  0  0  0  0  0  0  0  0  0
   -7.1255  -21.0276   17.9151 C   0  0  0  0  0  0  0  0  0  0  0  0
   -8.3239  -20.6050   19.0104 C   0  0  0  0  0  0  0  0  0  0  0  0
   -9.1809  -19.7375   18.2220 C   0  0  0  0  0  0  0  0  0  0  0  0
   -9.4819  -20.5554   16.9611 N   0  0  0  0  0  0  0  0  0  0  0  0
   -9.3751  -21.8629   16.1070 C   0  0  0  0  0  0  0  0  0  0  0  0
   -7.7539  -22.0516   16.0370 C   0  0  0  0  0  0  0  0  0  0  0  0
   -3.2476  -12.6288   27.0202 C   0  0  0  0  0  0  0  0  0  0  0  0
   -3.0640  -12.0751   28.7374 C   0  0  0  0  0  0  0  0  0  0  0  0
   -2.0707  -11.2156   29.0895 C   0  0  0  0  0  0  0  0  0  0  0  0
    0.1226   -8.5643   29.6340 H   0  0  0  0  0  0  0  0  0  0  0  0
   -0.3082   -9.2108   27.3787 H   0  0  0  0  0  0  0  0  0  0  0  0
   -2.5072  -11.7407   25.4352 H   0  0  0  0  0  0  0  0  0  0  0  0
   -5.1350  -15.2729   23.9612 H   0  0  0  0  0  0  0  0  0  0  0  0
   -5.0894  -17.3629   22.3135 H   0  0  0  0  0  0  0  0  0  0  0  0
   -3.5600  -16.6917   21.2261 H   0  0  0  0  0  0  0  0  0  0  0  0
   -6.1120  -18.6720   21.3213 H   0  0  0  0  0  0  0  0  0  0  0  0
   -6.5263  -17.4338   20.2458 H   0  0  0  0  0  0  0  0  0  0  0  0
   -5.9272  -20.2945   19.8384 H   0  0  0  0  0  0  0  0  0  0  0  0
   -6.7252  -18.8459   18.7330 H   0  0  0  0  0  0  0  0  0  0  0  0
   -7.5573  -20.2080   17.4996 H   0  0  0  0  0  0  0  0  0  0  0  0
   -9.0323  -21.2496   19.4919 H   0  0  0  0  0  0  0  0  0  0  0  0
   -7.9460  -20.0617   19.8823 H   0  0  0  0  0  0  0  0  0  0  0  0
   -8.7129  -18.7585   18.0362 H   0  0  0  0  0  0  0  0  0  0  0  0
   -9.9853  -19.3560   18.8677 H   0  0  0  0  0  0  0  0  0  0  0  0
   -9.8426  -19.9023   16.2609 H   0  0  0  0  0  0  0  0  0  0  0  0
   -9.7687  -22.8466   16.2617 H   0  0  0  0  0  0  0  0  0  0  0  0
   -9.7023  -21.6503   15.0746 H   0  0  0  0  0  0  0  0  0  0  0  0
   -7.6164  -23.1240   15.8406 H   0  0  0  0  0  0  0  0  0  0  0  0
   -7.6106  -21.7891   14.9136 H   0  0  0  0  0  0  0  0  0  0  0  0
   -4.2670  -12.2325   27.0643 H   0  0  0  0  0  0  0  0  0  0  0  0
   -3.9563  -12.1612   29.3628 H   0  0  0  0  0  0  0  0  0  0  0  0
  1  2  3  0
  2  3  1  0
  3  4  2  0
  4  5  1  0
  5  6  1  0
  6  7  2  0
  7  8  1  0
  8  9  1  0
  9 10  2  0
  9 11  1  0
 11 12  1  0
 12 13  1  0
 13 14  1  0
 14 15  1  0
 15 16  1  0
 16 17  1  0
 17 18  1  0
 18 19  1  0
 19 20  1  0
  8 21  2  0
 21 22  1  0
 22 23  2  0
 23  3  1  0
 23  6  1  0
 20 15  1  0
  4 24  1  0
  5 25  1  0
  7 26  1  0
 11 27  1  0
 12 28  1  0
 12 29  1  0
 13 30  1  0
 13 31  1  0
 14 32  1  0
 14 33  1  0
 15 34  1  0
 16 35  1  0
 16 36  1  0
 17 37  1  0
 17 38  1  0
 18 39  1  0
 19 40  1  0
 19 41  1  0
 20 42  1  0
 20 43  1  0
 21 44  1  0
 22 45  1  0
M  END
>  <Energy>  (659) 
1598.1130377117104

>  <compound_id>  (659) 
26764

>  <target_id>  (659) 
1

>  <reference_id>  (659) 
9

>  <inspiration_ids>  (659) 
[40, 9]

>  <energy_score>  (659) 
1533.036504832342

>  <distance_score>  (659) 
7.934054965924701

>  <path>  (659) 
/opt/xchem-fragalysis-2/maxwin/BulkDock/SCRATCH/511015/C26764-P9/C26764-P9.minimised.mol

>  <scratch_subdir>  (659) 
/opt/xchem-fragalysis-2/maxwin/BulkDock/SCRATCH/511015/C26764-P9

>  <fragmenstein_runtime>  (659) 
13.710737943649292

>  <fragmenstein_outcome>  (659) 
too moved

>  <fragmenstein_mode>  (659) 
expansion

>  <fragmenstein_error>  (659) 


$$$$
C26766-P40
     RDKit          3D

 39 42  0  0  0  0  0  0  0  0999 V2000
    0.3276  -18.1617   27.9600 C   0  0  0  0  0  0  0  0  0  0  0  0
   -0.8109  -17.8374   27.2235 C   0  0  0  0  0  0  0  0  0  0  0  0
   -1.5392  -16.6552   27.4449 C   0  0  0  0  0  0  0  0  0  0  0  0
   -2.2609  -16.1307   26.2379 C   0  0  0  0  0  0  0  0  0  0  0  0
   -2.8815  -16.5264   25.1582 N   0  0  0  0  0  0  0  0  0  0  0  0
   -3.6128  -15.5580   23.8196 C   0  0  0  0  0  0  0  0  0  0  0  0
   -4.1942  -16.5236   22.0543 C   0  0  0  0  0  0  0  0  0  0  0  0
   -5.6282  -17.7321   21.4085 C   0  0  0  0  0  0  0  0  0  0  0  0
   -6.8194  -18.3601   22.1931 C   0  0  0  0  0  0  0  0  0  0  0  0
   -7.9221  -18.9551   21.2679 C   0  0  0  0  0  0  0  0  0  0  0  0
   -7.5445  -20.0413   20.3641 N   0  0  0  0  0  0  0  0  0  0  0  0
   -6.1142  -20.0335   20.1072 C   0  0  0  0  0  0  0  0  0  0  0  0
   -5.4633  -18.6438   20.0930 C   0  0  0  0  0  0  0  0  0  0  0  0
   -2.5233  -14.7097   24.0771 N   0  0  0  0  0  0  0  0  0  0  0  0
   -2.3690  -14.6022   25.8784 O   0  0  0  0  0  0  0  0  0  0  0  0
   -1.2239  -15.9571   28.6704 C   0  0  0  0  0  0  0  0  0  0  0  0
   -1.7970  -14.9752   29.5315 C   0  0  0  0  0  0  0  0  0  0  0  0
   -0.9586  -14.6814   30.5817 C   0  0  0  0  0  0  0  0  0  0  0  0
    0.1698  -15.4023   30.3877 N   0  0  0  0  0  0  0  0  0  0  0  0
   -0.0279  -16.2806   29.3440 C   0  0  0  0  0  0  0  0  0  0  0  0
    0.7892  -17.3394   28.9761 C   0  0  0  0  0  0  0  0  0  0  0  0
    0.8963  -19.0507   27.6940 H   0  0  0  0  0  0  0  0  0  0  0  0
   -1.0673  -18.4618   26.3694 H   0  0  0  0  0  0  0  0  0  0  0  0
   -4.5695  -15.8465   21.3982 H   0  0  0  0  0  0  0  0  0  0  0  0
   -3.3938  -16.7241   21.3046 H   0  0  0  0  0  0  0  0  0  0  0  0
   -6.2283  -17.0118   20.8458 H   0  0  0  0  0  0  0  0  0  0  0  0
   -7.3050  -17.5501   22.7053 H   0  0  0  0  0  0  0  0  0  0  0  0
   -6.5637  -19.0909   22.9538 H   0  0  0  0  0  0  0  0  0  0  0  0
   -8.7553  -19.3047   21.8874 H   0  0  0  0  0  0  0  0  0  0  0  0
   -8.3155  -18.1389   20.6493 H   0  0  0  0  0  0  0  0  0  0  0  0
   -8.0360  -19.8942   19.4798 H   0  0  0  0  0  0  0  0  0  0  0  0
   -5.6237  -20.6812   20.8385 H   0  0  0  0  0  0  0  0  0  0  0  0
   -5.9333  -20.5125   19.1366 H   0  0  0  0  0  0  0  0  0  0  0  0
   -5.8512  -18.1032   19.2180 H   0  0  0  0  0  0  0  0  0  0  0  0
   -4.4414  -18.8366   19.8782 H   0  0  0  0  0  0  0  0  0  0  0  0
   -2.7541  -14.5215   29.4871 H   0  0  0  0  0  0  0  0  0  0  0  0
   -1.0978  -14.0391   31.4344 H   0  0  0  0  0  0  0  0  0  0  0  0
    0.9710  -15.4286   31.0036 H   0  0  0  0  0  0  0  0  0  0  0  0
    1.7015  -17.5780   29.5133 H   0  0  0  0  0  0  0  0  0  0  0  0
  1  2  2  0
  2  3  1  0
  3  4  1  0
  4  5  2  0
  5  6  1  0
  6  7  1  0
  7  8  1  0
  8  9  1  0
  9 10  1  0
 10 11  1  0
 11 12  1  0
 12 13  1  0
  6 14  2  0
 14 15  1  0
  3 16  2  0
 16 17  1  0
 17 18  2  0
 18 19  1  0
 19 20  1  0
 20 21  2  0
 21  1  1  0
 15  4  1  0
 20 16  1  0
 13  8  1  0
  1 22  1  0
  2 23  1  0
  7 24  1  0
  7 25  1  0
  8 26  1  0
  9 27  1  0
  9 28  1  0
 10 29  1  0
 10 30  1  0
 11 31  1  0
 12 32  1  0
 12 33  1  0
 13 34  1  0
 13 35  1  0
 17 36  1  0
 18 37  1  0
 19 38  1  0
 21 39  1  0
M  END
>  <Energy>  (660) 
424.35052107016276

>  <compound_id>  (660) 
26766

>  <target_id>  (660) 
1

>  <reference_id>  (660) 
40

>  <inspiration_ids>  (660) 
[40, 9]

>  <energy_score>  (660) 
343.9583637231975

>  <distance_score>  (660) 
11.962150254709815

>  <path>  (660) 
/opt/xchem-fragalysis-2/maxwin/BulkDock/SCRATCH/511015/C26766-P40/C26766-P40.minimised.mol

>  <scratch_subdir>  (660) 
/opt/xchem-fragalysis-2/maxwin/BulkDock/SCRATCH/511015/C26766-P40

>  <fragmenstein_runtime>  (660) 
11.02522587776184

>  <fragmenstein_outcome>  (660) 
too moved

>  <fragmenstein_mode>  (660) 
expansion

>  <fragmenstein_error>  (660) 


$$$$
C26766-P9
     RDKit          3D

 39 42  0  0  0  0  0  0  0  0999 V2000
   -4.2087  -12.5487   24.4981 C   0  0  0  0  0  0  0  0  0  0  0  0
   -4.7083  -14.0963   23.6739 C   0  0  0  0  0  0  0  0  0  0  0  0
   -4.1071  -15.4216   23.4852 C   0  0  0  0  0  0  0  0  0  0  0  0
   -4.5646  -16.6250   21.9070 C   0  0  0  0  0  0  0  0  0  0  0  0
   -5.6771  -17.6816   21.3277 N   0  0  0  0  0  0  0  0  0  0  0  0
   -5.3763  -18.4134   19.7419 C   0  0  0  0  0  0  0  0  0  0  0  0
   -5.7654  -19.5475   18.1600 C   0  0  0  0  0  0  0  0  0  0  0  0
   -6.8698  -21.0475   17.4050 C   0  0  0  0  0  0  0  0  0  0  0  0
   -7.7932  -20.2994   18.2797 C   0  0  0  0  0  0  0  0  0  0  0  0
   -9.0686  -20.6730   17.8121 C   0  0  0  0  0  0  0  0  0  0  0  0
   -9.5668  -21.2168   16.4680 N   0  0  0  0  0  0  0  0  0  0  0  0
   -9.2179  -22.2980   15.6176 C   0  0  0  0  0  0  0  0  0  0  0  0
   -7.7290  -22.2236   15.7712 C   0  0  0  0  0  0  0  0  0  0  0  0
   -4.5317  -17.4549   19.2921 N   0  0  0  0  0  0  0  0  0  0  0  0
   -3.6402  -16.7415   20.6804 O   0  0  0  0  0  0  0  0  0  0  0  0
   -3.0548  -15.5490   24.9817 C   0  0  0  0  0  0  0  0  0  0  0  0
   -2.3890  -16.7216   26.0323 C   0  0  0  0  0  0  0  0  0  0  0  0
   -1.9811  -16.1883   27.2596 C   0  0  0  0  0  0  0  0  0  0  0  0
   -2.0587  -14.7871   27.2213 N   0  0  0  0  0  0  0  0  0  0  0  0
   -2.4936  -14.1984   25.9683 C   0  0  0  0  0  0  0  0  0  0  0  0
   -2.9788  -12.6667   25.6967 C   0  0  0  0  0  0  0  0  0  0  0  0
   -5.0697  -11.9093   24.3693 H   0  0  0  0  0  0  0  0  0  0  0  0
   -3.5598  -14.2853   23.6435 H   0  0  0  0  0  0  0  0  0  0  0  0
   -5.9848  -18.7048   17.4787 H   0  0  0  0  0  0  0  0  0  0  0  0
   -4.7700  -19.8555   17.8497 H   0  0  0  0  0  0  0  0  0  0  0  0
   -6.3131  -21.8171   17.9880 H   0  0  0  0  0  0  0  0  0  0  0  0
   -7.7805  -19.1972   18.2266 H   0  0  0  0  0  0  0  0  0  0  0  0
   -7.6349  -20.4843   19.3514 H   0  0  0  0  0  0  0  0  0  0  0  0
   -9.2690  -21.3180   18.6400 H   0  0  0  0  0  0  0  0  0  0  0  0
   -9.5576  -19.7129   18.0382 H   0  0  0  0  0  0  0  0  0  0  0  0
   -9.8652  -20.4652   15.8603 H   0  0  0  0  0  0  0  0  0  0  0  0
   -9.6066  -23.2939   15.7836 H   0  0  0  0  0  0  0  0  0  0  0  0
   -9.5245  -22.1060   14.5798 H   0  0  0  0  0  0  0  0  0  0  0  0
   -7.5321  -21.9099   14.6959 H   0  0  0  0  0  0  0  0  0  0  0  0
   -7.4338  -23.2267   15.8542 H   0  0  0  0  0  0  0  0  0  0  0  0
   -2.3211  -17.7798   25.8793 H   0  0  0  0  0  0  0  0  0  0  0  0
   -1.6119  -16.6757   28.1518 H   0  0  0  0  0  0  0  0  0  0  0  0
   -1.8493  -14.2310   28.0269 H   0  0  0  0  0  0  0  0  0  0  0  0
   -2.8505  -11.9879   26.5214 H   0  0  0  0  0  0  0  0  0  0  0  0
  1  2  2  0
  2  3  1  0
  3  4  1  0
  4  5  2  0
  5  6  1  0
  6  7  1  0
  7  8  1  0
  8  9  1  0
  9 10  1  0
 10 11  1  0
 11 12  1  0
 12 13  1  0
  6 14  2  0
 14 15  1  0
  3 16  2  0
 16 17  1  0
 17 18  2  0
 18 19  1  0
 19 20  1  0
 20 21  2  0
 21  1  1  0
 15  4  1  0
 20 16  1  0
 13  8  1  0
  1 22  1  0
  2 23  1  0
  7 24  1  0
  7 25  1  0
  8 26  1  0
  9 27  1  0
  9 28  1  0
 10 29  1  0
 10 30  1  0
 11 31  1  0
 12 32  1  0
 12 33  1  0
 13 34  1  0
 13 35  1  0
 17 36  1  0
 18 37  1  0
 19 38  1  0
 21 39  1  0
M  END
>  <Energy>  (661) 
1091.8666208773377

>  <compound_id>  (661) 
26766

>  <target_id>  (661) 
1

>  <reference_id>  (661) 
9

>  <inspiration_ids>  (661) 
[40, 9]

>  <energy_score>  (661) 
1011.4744635303779

>  <distance_score>  (661) 
9.63880373376302

>  <path>  (661) 
/opt/xchem-fragalysis-2/maxwin/BulkDock/SCRATCH/511015/C26766-P9/C26766-P9.minimised.mol

>  <scratch_subdir>  (661) 
/opt/xchem-fragalysis-2/maxwin/BulkDock/SCRATCH/511015/C26766-P9

>  <fragmenstein_runtime>  (661) 
8.632854700088501

>  <fragmenstein_outcome>  (661) 
too moved

>  <fragmenstein_mode>  (661) 
expansion

>  <fragmenstein_error>  (661) 


$$$$
C26770-P40
     RDKit          3D

 40 43  0  0  0  0  0  0  0  0999 V2000
    2.4116  -20.0045   25.1345 C   0  0  0  0  0  0  0  0  0  0  0  0
    1.6670  -18.9274   25.7557 N   0  0  0  0  0  0  0  0  0  0  0  0
    2.3325  -17.8047   26.2016 C   0  0  0  0  0  0  0  0  0  0  0  0
    1.5586  -17.2138   27.1574 C   0  0  0  0  0  0  0  0  0  0  0  0
    0.3375  -17.9418   27.2114 C   0  0  0  0  0  0  0  0  0  0  0  0
   -0.7767  -17.7636   28.0446 C   0  0  0  0  0  0  0  0  0  0  0  0
   -1.8444  -18.6290   27.9143 C   0  0  0  0  0  0  0  0  0  0  0  0
   -1.8503  -19.6101   26.9134 C   0  0  0  0  0  0  0  0  0  0  0  0
   -0.8150  -19.8106   25.9693 C   0  0  0  0  0  0  0  0  0  0  0  0
   -1.1326  -20.7644   24.7662 C   0  0  0  0  0  0  0  0  0  0  0  0
   -2.2816  -21.4486   24.5442 N   0  0  0  0  0  0  0  0  0  0  0  0
   -2.3311  -22.1176   23.2777 C   0  0  0  0  0  0  0  0  0  0  0  0
   -3.4814  -23.0507   22.7993 C   0  0  0  0  0  0  0  0  0  0  0  0
   -3.8196  -22.9010   21.2894 C   0  0  0  0  0  0  0  0  0  0  0  0
   -5.2718  -23.2291   20.9304 C   0  0  0  0  0  0  0  0  0  0  0  0
   -5.7840  -24.3862   21.6610 N   0  0  0  0  0  0  0  0  0  0  0  0
   -5.7591  -24.1310   23.1088 C   0  0  0  0  0  0  0  0  0  0  0  0
   -4.7840  -23.0351   23.5977 C   0  0  0  0  0  0  0  0  0  0  0  0
   -1.1754  -21.9049   22.5511 C   0  0  0  0  0  0  0  0  0  0  0  0
   -0.1020  -20.8579   23.3782 S   0  0  0  0  0  0  0  0  0  0  0  0
    0.3521  -18.9738   26.2245 C   0  0  0  0  0  0  0  0  0  0  0  0
    3.4250  -20.0162   25.5489 H   0  0  0  0  0  0  0  0  0  0  0  0
    2.4676  -19.8117   24.0619 H   0  0  0  0  0  0  0  0  0  0  0  0
    1.9438  -20.9611   25.3727 H   0  0  0  0  0  0  0  0  0  0  0  0
    3.3392  -17.5823   25.8703 H   0  0  0  0  0  0  0  0  0  0  0  0
    1.8350  -16.3590   27.7588 H   0  0  0  0  0  0  0  0  0  0  0  0
   -0.7973  -16.9856   28.7999 H   0  0  0  0  0  0  0  0  0  0  0  0
   -2.7182  -18.5219   28.5528 H   0  0  0  0  0  0  0  0  0  0  0  0
   -2.7552  -20.2169   26.8215 H   0  0  0  0  0  0  0  0  0  0  0  0
   -3.0624  -24.0620   22.9246 H   0  0  0  0  0  0  0  0  0  0  0  0
   -3.6339  -21.8751   20.9633 H   0  0  0  0  0  0  0  0  0  0  0  0
   -3.1414  -23.5421   20.7115 H   0  0  0  0  0  0  0  0  0  0  0  0
   -5.9003  -22.3556   21.1391 H   0  0  0  0  0  0  0  0  0  0  0  0
   -5.3378  -23.4195   19.8537 H   0  0  0  0  0  0  0  0  0  0  0  0
   -5.1707  -25.1775   21.4548 H   0  0  0  0  0  0  0  0  0  0  0  0
   -5.5163  -25.0744   23.6128 H   0  0  0  0  0  0  0  0  0  0  0  0
   -6.7718  -23.8666   23.4350 H   0  0  0  0  0  0  0  0  0  0  0  0
   -4.5812  -23.1859   24.6649 H   0  0  0  0  0  0  0  0  0  0  0  0
   -5.2728  -22.0599   23.5145 H   0  0  0  0  0  0  0  0  0  0  0  0
   -0.9152  -22.3002   21.5795 H   0  0  0  0  0  0  0  0  0  0  0  0
  1  2  1  0
  2  3  1  0
  3  4  2  0
  4  5  1  0
  5  6  2  0
  6  7  1  0
  7  8  2  0
  8  9  1  0
  9 10  1  0
 10 11  2  0
 11 12  1  0
 12 13  1  0
 13 14  1  0
 14 15  1  0
 15 16  1  0
 16 17  1  0
 17 18  1  0
 12 19  2  0
 19 20  1  0
  9 21  2  0
 21  2  1  0
 21  5  1  0
 20 10  1  0
 18 13  1  0
  1 22  1  0
  1 23  1  0
  1 24  1  0
  3 25  1  0
  4 26  1  0
  6 27  1  0
  7 28  1  0
  8 29  1  0
 13 30  1  0
 14 31  1  0
 14 32  1  0
 15 33  1  0
 15 34  1  0
 16 35  1  0
 17 36  1  0
 17 37  1  0
 18 38  1  0
 18 39  1  0
 19 40  1  0
M  END
>  <Energy>  (662) 
65.54412113916338

>  <compound_id>  (662) 
26770

>  <target_id>  (662) 
1

>  <reference_id>  (662) 
40

>  <inspiration_ids>  (662) 
[40, 9]

>  <energy_score>  (662) 
-50.81061223514192

>  <distance_score>  (662) 
12.794906524999075

>  <path>  (662) 
/opt/xchem-fragalysis-2/maxwin/BulkDock/SCRATCH/511015/C26770-P40/C26770-P40.minimised.mol

>  <scratch_subdir>  (662) 
/opt/xchem-fragalysis-2/maxwin/BulkDock/SCRATCH/511015/C26770-P40

>  <fragmenstein_runtime>  (662) 
16.315406322479248

>  <fragmenstein_outcome>  (662) 
too moved

>  <fragmenstein_mode>  (662) 
expansion

>  <fragmenstein_error>  (662) 


$$$$
C26770-P9
     RDKit          3D

 40 43  0  0  0  0  0  0  0  0999 V2000
    1.0058  -13.6701   23.6885 C   0  0  0  0  0  0  0  0  0  0  0  0
    0.8992  -12.2534   23.7371 N   0  0  0  0  0  0  0  0  0  0  0  0
    2.1751  -11.7490   23.4480 C   0  0  0  0  0  0  0  0  0  0  0  0
    2.5746  -10.7751   24.2956 C   0  0  0  0  0  0  0  0  0  0  0  0
    1.3091  -10.1658   24.6351 C   0  0  0  0  0  0  0  0  0  0  0  0
    1.1225   -8.1256   24.1416 C   0  0  0  0  0  0  0  0  0  0  0  0
   -1.0107   -7.6802   24.1226 C   0  0  0  0  0  0  0  0  0  0  0  0
   -2.0796   -9.4991   24.6305 C   0  0  0  0  0  0  0  0  0  0  0  0
   -2.2987  -11.5024   24.7444 C   0  0  0  0  0  0  0  0  0  0  0  0
   -3.9740  -12.7775   24.2598 C   0  0  0  0  0  0  0  0  0  0  0  0
   -4.6968  -14.3704   23.5401 N   0  0  0  0  0  0  0  0  0  0  0  0
   -4.6646  -16.0307   22.3214 C   0  0  0  0  0  0  0  0  0  0  0  0
   -5.9012  -17.4311   21.5961 C   0  0  0  0  0  0  0  0  0  0  0  0
   -5.6937  -18.2828   20.2433 C   0  0  0  0  0  0  0  0  0  0  0  0
   -6.0798  -19.7726   20.2294 C   0  0  0  0  0  0  0  0  0  0  0  0
   -7.3972  -19.9871   20.7998 N   0  0  0  0  0  0  0  0  0  0  0  0
   -7.3997  -19.6239   22.1965 C   0  0  0  0  0  0  0  0  0  0  0  0
   -6.8763  -18.2168   22.5078 C   0  0  0  0  0  0  0  0  0  0  0  0
   -3.6943  -16.2388   21.6123 C   0  0  0  0  0  0  0  0  0  0  0  0
   -3.5581  -15.0562   23.7378 S   0  0  0  0  0  0  0  0  0  0  0  0
   -0.2399  -11.3453   24.1425 C   0  0  0  0  0  0  0  0  0  0  0  0
    0.0275  -14.0041   23.3790 H   0  0  0  0  0  0  0  0  0  0  0  0
    1.4493  -13.9571   24.6443 H   0  0  0  0  0  0  0  0  0  0  0  0
    1.7465  -14.0507   22.9726 H   0  0  0  0  0  0  0  0  0  0  0  0
    2.8206  -12.2964   22.7719 H   0  0  0  0  0  0  0  0  0  0  0  0
    3.5382  -10.2886   24.2620 H   0  0  0  0  0  0  0  0  0  0  0  0
    2.1169   -7.6940   24.0151 H   0  0  0  0  0  0  0  0  0  0  0  0
   -1.5930   -6.7522   24.2942 H   0  0  0  0  0  0  0  0  0  0  0  0
   -3.1707   -9.4367   24.7518 H   0  0  0  0  0  0  0  0  0  0  0  0
   -6.6419  -16.7943   21.0735 H   0  0  0  0  0  0  0  0  0  0  0  0
   -6.3330  -17.8366   19.4724 H   0  0  0  0  0  0  0  0  0  0  0  0
   -4.7188  -18.1530   19.8208 H   0  0  0  0  0  0  0  0  0  0  0  0
   -6.1037  -20.1100   19.1896 H   0  0  0  0  0  0  0  0  0  0  0  0
   -5.3256  -20.4015   20.7072 H   0  0  0  0  0  0  0  0  0  0  0  0
   -7.6925  -20.9463   20.7405 H   0  0  0  0  0  0  0  0  0  0  0  0
   -8.4353  -19.6890   22.5548 H   0  0  0  0  0  0  0  0  0  0  0  0
   -6.8801  -20.3892   22.7807 H   0  0  0  0  0  0  0  0  0  0  0  0
   -6.5326  -18.2258   23.5311 H   0  0  0  0  0  0  0  0  0  0  0  0
   -7.7742  -17.6113   22.4440 H   0  0  0  0  0  0  0  0  0  0  0  0
   -2.8712  -16.4871   20.9465 H   0  0  0  0  0  0  0  0  0  0  0  0
  1  2  1  0
  2  3  1  0
  3  4  2  0
  4  5  1  0
  5  6  2  0
  6  7  1  0
  7  8  2  0
  8  9  1  0
  9 10  1  0
 10 11  2  0
 11 12  1  0
 12 13  1  0
 13 14  1  0
 14 15  1  0
 15 16  1  0
 16 17  1  0
 17 18  1  0
 12 19  2  0
 19 20  1  0
  9 21  2  0
 21  2  1  0
 21  5  1  0
 20 10  1  0
 18 13  1  0
  1 22  1  0
  1 23  1  0
  1 24  1  0
  3 25  1  0
  4 26  1  0
  6 27  1  0
  7 28  1  0
  8 29  1  0
 13 30  1  0
 14 31  1  0
 14 32  1  0
 15 33  1  0
 15 34  1  0
 16 35  1  0
 17 36  1  0
 17 37  1  0
 18 38  1  0
 18 39  1  0
 19 40  1  0
M  END
>  <Energy>  (663) 
2372.0543175983025

>  <compound_id>  (663) 
26770

>  <target_id>  (663) 
1

>  <reference_id>  (663) 
9

>  <inspiration_ids>  (663) 
[40, 9]

>  <energy_score>  (663) 
2255.6995842240117

>  <distance_score>  (663) 
10.368124645943174

>  <path>  (663) 
/opt/xchem-fragalysis-2/maxwin/BulkDock/SCRATCH/511015/C26770-P9/C26770-P9.minimised.mol

>  <scratch_subdir>  (663) 
/opt/xchem-fragalysis-2/maxwin/BulkDock/SCRATCH/511015/C26770-P9

>  <fragmenstein_runtime>  (663) 
11.852582693099976

>  <fragmenstein_outcome>  (663) 
too moved

>  <fragmenstein_mode>  (663) 
expansion

>  <fragmenstein_error>  (663) 


$$$$
C26771-P40
     RDKit          3D

 42 44  0  0  0  0  0  0  0  0999 V2000
   -9.1795  -13.8872   18.8888 C   0  0  0  0  0  0  0  0  0  0  0  0
   -7.7308  -13.0389   19.6430 C   0  0  0  0  0  0  0  0  0  0  0  0
   -6.7453  -12.2658   21.2269 N   0  0  0  0  0  0  0  0  0  0  0  0
   -6.4271  -12.0206   22.9941 C   0  0  0  0  0  0  0  0  0  0  0  0
   -5.0421  -11.4389   24.2767 C   0  0  0  0  0  0  0  0  0  0  0  0
   -6.2666  -10.9277   25.6417 C   0  0  0  0  0  0  0  0  0  0  0  0
   -6.2339   -9.5556   26.9888 C   0  0  0  0  0  0  0  0  0  0  0  0
   -4.8182   -8.3710   26.8877 C   0  0  0  0  0  0  0  0  0  0  0  0
   -4.3337   -7.8405   27.9978 C   0  0  0  0  0  0  0  0  0  0  0  0
   -3.0326   -7.3631   27.8076 C   0  0  0  0  0  0  0  0  0  0  0  0
   -2.8238   -7.5542   26.4983 N   0  0  0  0  0  0  0  0  0  0  0  0
   -3.2526   -8.8306   25.7704 C   0  0  0  0  0  0  0  0  0  0  0  0
   -3.6299   -9.9699   24.0309 C   0  0  0  0  0  0  0  0  0  0  0  0
   -7.9135  -11.8879   18.2382 C   0  0  0  0  0  0  0  0  0  0  0  0
   -9.3191  -11.5489   17.5724 C   0  0  0  0  0  0  0  0  0  0  0  0
   -9.7901  -12.3596   16.3368 C   0  0  0  0  0  0  0  0  0  0  0  0
   -8.7523  -12.5854   15.3414 N   0  0  0  0  0  0  0  0  0  0  0  0
   -7.4787  -13.0200   15.9009 C   0  0  0  0  0  0  0  0  0  0  0  0
   -6.9792  -12.0640   17.0070 C   0  0  0  0  0  0  0  0  0  0  0  0
  -10.1061  -13.3272   19.0503 H   0  0  0  0  0  0  0  0  0  0  0  0
   -9.3454  -14.9397   19.1501 H   0  0  0  0  0  0  0  0  0  0  0  0
   -8.9799  -14.0293   17.8330 H   0  0  0  0  0  0  0  0  0  0  0  0
   -8.5824  -13.2728   20.3227 H   0  0  0  0  0  0  0  0  0  0  0  0
   -6.8703  -11.4165   20.7158 H   0  0  0  0  0  0  0  0  0  0  0  0
   -7.2197  -11.3432   23.2286 H   0  0  0  0  0  0  0  0  0  0  0  0
   -6.1912  -13.0398   23.2533 H   0  0  0  0  0  0  0  0  0  0  0  0
   -6.9162  -11.7895   25.7784 H   0  0  0  0  0  0  0  0  0  0  0  0
   -6.9411   -9.1520   27.7281 H   0  0  0  0  0  0  0  0  0  0  0  0
   -4.9937   -7.8867   28.8589 H   0  0  0  0  0  0  0  0  0  0  0  0
   -2.3247   -6.9732   28.5296 H   0  0  0  0  0  0  0  0  0  0  0  0
   -2.2772   -6.9687   25.9138 H   0  0  0  0  0  0  0  0  0  0  0  0
   -3.5403   -9.4959   23.0397 H   0  0  0  0  0  0  0  0  0  0  0  0
   -7.6723  -10.9334   18.6718 H   0  0  0  0  0  0  0  0  0  0  0  0
   -9.2223  -10.5110   17.2128 H   0  0  0  0  0  0  0  0  0  0  0  0
  -10.1201  -11.4810   18.3092 H   0  0  0  0  0  0  0  0  0  0  0  0
  -10.5851  -11.7785   15.8521 H   0  0  0  0  0  0  0  0  0  0  0  0
  -10.2785  -13.3001   16.6041 H   0  0  0  0  0  0  0  0  0  0  0  0
   -9.0749  -13.2492   14.6391 H   0  0  0  0  0  0  0  0  0  0  0  0
   -6.7386  -13.0085   15.0920 H   0  0  0  0  0  0  0  0  0  0  0  0
   -7.5503  -14.0618   16.2171 H   0  0  0  0  0  0  0  0  0  0  0  0
   -6.8847  -11.0730   16.5350 H   0  0  0  0  0  0  0  0  0  0  0  0
   -5.9625  -12.2814   17.3135 H   0  0  0  0  0  0  0  0  0  0  0  0
  1  2  1  0
  2  3  1  0
  3  4  1  0
  4  5  1  0
  5  6  2  0
  6  7  1  0
  7  8  2  0
  8  9  1  0
  9 10  2  0
 10 11  1  0
 11 12  1  0
 12 13  2  0
  2 14  1  0
 14 15  1  0
 15 16  1  0
 16 17  1  0
 17 18  1  0
 18 19  1  0
 13  5  1  0
 19 14  1  0
 12  8  1  0
  1 20  1  0
  1 21  1  0
  1 22  1  0
  2 23  1  0
  3 24  1  0
  4 25  1  0
  4 26  1  0
  6 27  1  0
  7 28  1  0
  9 29  1  0
 10 30  1  0
 11 31  1  0
 13 32  1  0
 14 33  1  0
 15 34  1  0
 15 35  1  0
 16 36  1  0
 16 37  1  0
 17 38  1  0
 18 39  1  0
 18 40  1  0
 19 41  1  0
 19 42  1  0
M  END
>  <Energy>  (664) 
1157.9871420891691

>  <compound_id>  (664) 
26771

>  <target_id>  (664) 
1

>  <reference_id>  (664) 
40

>  <inspiration_ids>  (664) 
[40, 9]

>  <energy_score>  (664) 
1108.1515463495703

>  <distance_score>  (664) 
11.669131957643197

>  <path>  (664) 
/opt/xchem-fragalysis-2/maxwin/BulkDock/SCRATCH/511015/C26771-P40/C26771-P40.minimised.mol

>  <scratch_subdir>  (664) 
/opt/xchem-fragalysis-2/maxwin/BulkDock/SCRATCH/511015/C26771-P40

>  <fragmenstein_runtime>  (664) 
8.870615482330322

>  <fragmenstein_outcome>  (664) 
too moved

>  <fragmenstein_mode>  (664) 
expansion

>  <fragmenstein_error>  (664) 


$$$$
C26771-P9
     RDKit          3D

 42 44  0  0  0  0  0  0  0  0999 V2000
  -10.0995  -11.9911   17.3689 C   0  0  0  0  0  0  0  0  0  0  0  0
   -9.2277  -13.0053   18.1590 C   0  0  0  0  0  0  0  0  0  0  0  0
   -7.9575  -12.2151   18.4635 N   0  0  0  0  0  0  0  0  0  0  0  0
   -7.0468  -12.5770   19.7260 C   0  0  0  0  0  0  0  0  0  0  0  0
   -6.7480  -12.1051   21.6161 C   0  0  0  0  0  0  0  0  0  0  0  0
   -6.2596  -12.8349   22.6234 C   0  0  0  0  0  0  0  0  0  0  0  0
   -5.6977  -13.6779   23.5569 C   0  0  0  0  0  0  0  0  0  0  0  0
   -5.5655  -12.5590   24.2421 C   0  0  0  0  0  0  0  0  0  0  0  0
   -3.9088  -12.3101   24.8880 C   0  0  0  0  0  0  0  0  0  0  0  0
   -4.1985  -11.3424   24.1694 C   0  0  0  0  0  0  0  0  0  0  0  0
   -5.9317  -11.4139   24.8509 N   0  0  0  0  0  0  0  0  0  0  0  0
   -6.7691  -11.3571   23.9612 C   0  0  0  0  0  0  0  0  0  0  0  0
   -7.4192  -11.3963   22.7252 C   0  0  0  0  0  0  0  0  0  0  0  0
   -9.4060  -14.3453   17.2994 C   0  0  0  0  0  0  0  0  0  0  0  0
   -9.8526  -15.5835   18.0905 C   0  0  0  0  0  0  0  0  0  0  0  0
  -10.2983  -16.7370   17.1941 C   0  0  0  0  0  0  0  0  0  0  0  0
   -9.9591  -16.5661   15.7885 N   0  0  0  0  0  0  0  0  0  0  0  0
   -8.5740  -16.1222   15.6585 C   0  0  0  0  0  0  0  0  0  0  0  0
   -8.4136  -14.6793   16.1719 C   0  0  0  0  0  0  0  0  0  0  0  0
  -11.1388  -12.3305   17.2842 H   0  0  0  0  0  0  0  0  0  0  0  0
   -9.7009  -11.8167   16.3629 H   0  0  0  0  0  0  0  0  0  0  0  0
  -10.1507  -11.0209   17.8773 H   0  0  0  0  0  0  0  0  0  0  0  0
   -9.7436  -13.1456   19.1132 H   0  0  0  0  0  0  0  0  0  0  0  0
   -8.2207  -11.2550   18.6687 H   0  0  0  0  0  0  0  0  0  0  0  0
   -7.5948  -13.4758   19.9041 H   0  0  0  0  0  0  0  0  0  0  0  0
   -6.0684  -12.6233   19.2309 H   0  0  0  0  0  0  0  0  0  0  0  0
   -7.1763  -13.0375   23.0187 H   0  0  0  0  0  0  0  0  0  0  0  0
   -4.9733  -14.4861   23.5435 H   0  0  0  0  0  0  0  0  0  0  0  0
   -3.0714  -12.6965   25.4891 H   0  0  0  0  0  0  0  0  0  0  0  0
   -3.7320  -10.4612   23.6485 H   0  0  0  0  0  0  0  0  0  0  0  0
   -6.2074  -11.5358   25.8582 H   0  0  0  0  0  0  0  0  0  0  0  0
   -8.4004  -10.9580   22.8034 H   0  0  0  0  0  0  0  0  0  0  0  0
  -10.3248  -14.1562   16.7183 H   0  0  0  0  0  0  0  0  0  0  0  0
   -9.0685  -15.9427   18.7525 H   0  0  0  0  0  0  0  0  0  0  0  0
  -10.7084  -15.3124   18.7164 H   0  0  0  0  0  0  0  0  0  0  0  0
  -11.3844  -16.8534   17.2731 H   0  0  0  0  0  0  0  0  0  0  0  0
   -9.8343  -17.6493   17.5803 H   0  0  0  0  0  0  0  0  0  0  0  0
  -10.1142  -17.4422   15.3028 H   0  0  0  0  0  0  0  0  0  0  0  0
   -7.8983  -16.7928   16.2024 H   0  0  0  0  0  0  0  0  0  0  0  0
   -8.2730  -16.1593   14.6057 H   0  0  0  0  0  0  0  0  0  0  0  0
   -8.5971  -13.9849   15.3409 H   0  0  0  0  0  0  0  0  0  0  0  0
   -7.3754  -14.5165   16.4621 H   0  0  0  0  0  0  0  0  0  0  0  0
  1  2  1  0
  2  3  1  0
  3  4  1  0
  4  5  1  0
  5  6  2  0
  6  7  1  0
  7  8  2  0
  8  9  1  0
  9 10  2  0
 10 11  1  0
 11 12  1  0
 12 13  2  0
  2 14  1  0
 14 15  1  0
 15 16  1  0
 16 17  1  0
 17 18  1  0
 18 19  1  0
 13  5  1  0
 19 14  1  0
 12  8  1  0
  1 20  1  0
  1 21  1  0
  1 22  1  0
  2 23  1  0
  3 24  1  0
  4 25  1  0
  4 26  1  0
  6 27  1  0
  7 28  1  0
  9 29  1  0
 10 30  1  0
 11 31  1  0
 13 32  1  0
 14 33  1  0
 15 34  1  0
 15 35  1  0
 16 36  1  0
 16 37  1  0
 17 38  1  0
 18 39  1  0
 18 40  1  0
 19 41  1  0
 19 42  1  0
M  END
>  <Energy>  (665) 
759.97557908258841

>  <compound_id>  (665) 
26771

>  <target_id>  (665) 
1

>  <reference_id>  (665) 
9

>  <inspiration_ids>  (665) 
[40, 9]

>  <energy_score>  (665) 
710.1399833429913

>  <distance_score>  (665) 
11.587819177509981

>  <path>  (665) 
/opt/xchem-fragalysis-2/maxwin/BulkDock/SCRATCH/511015/C26771-P9/C26771-P9.minimised.mol

>  <scratch_subdir>  (665) 
/opt/xchem-fragalysis-2/maxwin/BulkDock/SCRATCH/511015/C26771-P9

>  <fragmenstein_runtime>  (665) 
11.758099794387817

>  <fragmenstein_outcome>  (665) 
too moved

>  <fragmenstein_mode>  (665) 
expansion

>  <fragmenstein_error>  (665) 


$$$$
C11844-P40
     RDKit          3D

 44 46  0  0  0  0  0  0  0  0999 V2000
   -6.6549  -18.1426   21.6098 O   0  0  0  0  0  0  0  0  0  0  0  0
   -7.4200  -18.2013   22.5935 C   0  0  0  0  0  0  0  0  0  0  0  0
   -7.3257  -16.5274   23.7206 C   0  0  0  0  0  0  0  0  0  0  0  0
   -7.8611  -15.5174   25.0815 C   0  0  0  0  0  0  0  0  0  0  0  0
   -7.3037  -13.9979   26.0474 C   0  0  0  0  0  0  0  0  0  0  0  0
   -7.9600  -14.0132   27.2245 C   0  0  0  0  0  0  0  0  0  0  0  0
   -7.1252  -13.4575   28.1296 C   0  0  0  0  0  0  0  0  0  0  0  0
   -6.1123  -12.0840   28.1285 C   0  0  0  0  0  0  0  0  0  0  0  0
   -4.9528  -12.0604   29.2599 N   0  0  0  0  0  0  0  0  0  0  0  0
   -3.6666  -11.9450   28.6808 C   0  0  0  0  0  0  0  0  0  0  0  0
   -3.9326  -12.0059   27.2363 C   0  0  0  0  0  0  0  0  0  0  0  0
   -5.6623  -11.7981   26.8768 C   0  0  0  0  0  0  0  0  0  0  0  0
   -6.4900  -12.5243   25.8671 C   0  0  0  0  0  0  0  0  0  0  0  0
   -8.3120  -19.7714   22.5862 O   0  0  0  0  0  0  0  0  0  0  0  0
   -9.0922  -21.4868   21.8948 C   0  0  0  0  0  0  0  0  0  0  0  0
  -10.5638  -22.5994   20.8538 C   0  0  0  0  0  0  0  0  0  0  0  0
  -11.2455  -24.4985   20.3619 N   0  0  0  0  0  0  0  0  0  0  0  0
  -11.5863  -25.8531   18.9499 C   0  0  0  0  0  0  0  0  0  0  0  0
  -12.8872  -26.7461   18.6196 C   0  0  0  0  0  0  0  0  0  0  0  0
  -13.7217  -25.9560   17.7059 C   0  0  0  0  0  0  0  0  0  0  0  0
  -13.6402  -24.5706   18.2766 C   0  0  0  0  0  0  0  0  0  0  0  0
  -12.7142  -24.3591   19.8976 C   0  0  0  0  0  0  0  0  0  0  0  0
   -6.7580  -15.5681   23.7044 H   0  0  0  0  0  0  0  0  0  0  0  0
   -8.7108  -15.9036   25.6624 H   0  0  0  0  0  0  0  0  0  0  0  0
   -8.6375  -14.8005   27.4339 H   0  0  0  0  0  0  0  0  0  0  0  0
   -7.0236  -13.9775   29.0821 H   0  0  0  0  0  0  0  0  0  0  0  0
   -5.1209  -12.5170   30.1391 H   0  0  0  0  0  0  0  0  0  0  0  0
   -2.7706  -12.0636   29.2629 H   0  0  0  0  0  0  0  0  0  0  0  0
   -3.1747  -12.1357   26.4544 H   0  0  0  0  0  0  0  0  0  0  0  0
   -6.1036  -12.2307   24.8735 H   0  0  0  0  0  0  0  0  0  0  0  0
   -8.1239  -21.9456   21.6869 H   0  0  0  0  0  0  0  0  0  0  0  0
   -9.4115  -21.8106   22.8839 H   0  0  0  0  0  0  0  0  0  0  0  0
  -10.1528  -22.1828   19.9648 H   0  0  0  0  0  0  0  0  0  0  0  0
  -11.4924  -22.1045   21.1600 H   0  0  0  0  0  0  0  0  0  0  0  0
  -10.9849  -26.6956   19.1352 H   0  0  0  0  0  0  0  0  0  0  0  0
  -11.1442  -25.8172   17.9143 H   0  0  0  0  0  0  0  0  0  0  0  0
  -12.5741  -27.6760   18.1253 H   0  0  0  0  0  0  0  0  0  0  0  0
  -13.4717  -27.0647   19.4825 H   0  0  0  0  0  0  0  0  0  0  0  0
  -14.7474  -26.3386   17.6756 H   0  0  0  0  0  0  0  0  0  0  0  0
  -13.3321  -25.9773   16.6817 H   0  0  0  0  0  0  0  0  0  0  0  0
  -13.2851  -23.9105   17.5019 H   0  0  0  0  0  0  0  0  0  0  0  0
  -14.6621  -24.2418   18.2149 H   0  0  0  0  0  0  0  0  0  0  0  0
  -13.1556  -25.2494   20.3094 H   0  0  0  0  0  0  0  0  0  0  0  0
  -12.8019  -23.4504   20.4832 H   0  0  0  0  0  0  0  0  0  0  0  0
  1  2  2  0
  2  3  1  0
  3  4  2  3
  4  5  1  0
  5  6  2  0
  6  7  1  0
  7  8  2  0
  8  9  1  0
  9 10  1  0
 10 11  2  0
 11 12  1  0
 12 13  2  0
  2 14  1  0
 14 15  1  0
 15 16  1  0
 16 17  1  0
 17 18  1  0
 18 19  1  0
 19 20  1  0
 20 21  1  0
 21 22  1  0
 13  5  1  0
 22 17  1  0
 12  8  1  0
  3 23  1  0
  4 24  1  0
  6 25  1  0
  7 26  1  0
  9 27  1  0
 10 28  1  0
 11 29  1  0
 13 30  1  0
 15 31  1  0
 15 32  1  0
 16 33  1  0
 16 34  1  0
 18 35  1  0
 18 36  1  0
 19 37  1  0
 19 38  1  0
 20 39  1  0
 20 40  1  0
 21 41  1  0
 21 42  1  0
 22 43  1  0
 22 44  1  0
M  END
>  <Energy>  (666) 
1204.341858447488

>  <compound_id>  (666) 
11844

>  <target_id>  (666) 
1

>  <reference_id>  (666) 
40

>  <inspiration_ids>  (666) 
[40, 9]

>  <energy_score>  (666) 
1138.7316439250853

>  <distance_score>  (666) 
9.44025706331063

>  <path>  (666) 
/opt/xchem-fragalysis-2/maxwin/BulkDock/SCRATCH/511015/C11844-P40/C11844-P40.minimised.mol

>  <scratch_subdir>  (666) 
/opt/xchem-fragalysis-2/maxwin/BulkDock/SCRATCH/511015/C11844-P40

>  <fragmenstein_runtime>  (666) 
14.324953079223633

>  <fragmenstein_outcome>  (666) 
too moved

>  <fragmenstein_mode>  (666) 
expansion

>  <fragmenstein_error>  (666) 


$$$$
C11844-P9
     RDKit          3D

 44 46  0  0  0  0  0  0  0  0999 V2000
   -8.7797  -21.9318   22.6596 O   0  0  0  0  0  0  0  0  0  0  0  0
   -8.8507  -21.4599   21.5251 C   0  0  0  0  0  0  0  0  0  0  0  0
   -7.5974  -20.5984   21.0784 C   0  0  0  0  0  0  0  0  0  0  0  0
   -7.0288  -20.0902   19.9509 C   0  0  0  0  0  0  0  0  0  0  0  0
   -5.9302  -19.0675   19.8097 C   0  0  0  0  0  0  0  0  0  0  0  0
   -5.9421  -17.9580   20.6273 C   0  0  0  0  0  0  0  0  0  0  0  0
   -4.9045  -17.0242   20.5429 C   0  0  0  0  0  0  0  0  0  0  0  0
   -3.8946  -17.0701   19.5949 C   0  0  0  0  0  0  0  0  0  0  0  0
   -2.7783  -16.2849   19.4314 N   0  0  0  0  0  0  0  0  0  0  0  0
   -2.0371  -16.7869   18.4015 C   0  0  0  0  0  0  0  0  0  0  0  0
   -2.6806  -17.9251   17.9456 C   0  0  0  0  0  0  0  0  0  0  0  0
   -3.8624  -18.1330   18.7168 C   0  0  0  0  0  0  0  0  0  0  0  0
   -4.8983  -19.1285   18.8255 C   0  0  0  0  0  0  0  0  0  0  0  0
  -10.1002  -21.7966   20.7656 O   0  0  0  0  0  0  0  0  0  0  0  0
  -11.7326  -22.4996   21.0572 C   0  0  0  0  0  0  0  0  0  0  0  0
  -12.4144  -24.1965   20.3630 C   0  0  0  0  0  0  0  0  0  0  0  0
  -13.3845  -25.2435   19.1892 N   0  0  0  0  0  0  0  0  0  0  0  0
  -12.6963  -26.5003   18.6611 C   0  0  0  0  0  0  0  0  0  0  0  0
  -12.6820  -26.8493   17.1546 C   0  0  0  0  0  0  0  0  0  0  0  0
  -14.0747  -26.9065   16.5788 C   0  0  0  0  0  0  0  0  0  0  0  0
  -14.9427  -25.8616   17.2451 C   0  0  0  0  0  0  0  0  0  0  0  0
  -14.0990  -24.7640   17.9362 C   0  0  0  0  0  0  0  0  0  0  0  0
   -7.1026  -20.2970   22.0052 H   0  0  0  0  0  0  0  0  0  0  0  0
   -7.4466  -20.3696   18.9843 H   0  0  0  0  0  0  0  0  0  0  0  0
   -6.6498  -17.8909   21.4505 H   0  0  0  0  0  0  0  0  0  0  0  0
   -4.6891  -16.4480   21.4319 H   0  0  0  0  0  0  0  0  0  0  0  0
   -2.5505  -15.4673   19.9807 H   0  0  0  0  0  0  0  0  0  0  0  0
   -1.1160  -16.3149   18.0868 H   0  0  0  0  0  0  0  0  0  0  0  0
   -2.3209  -18.5665   17.1507 H   0  0  0  0  0  0  0  0  0  0  0  0
   -4.8607  -19.9817   18.1507 H   0  0  0  0  0  0  0  0  0  0  0  0
  -11.9029  -22.3653   22.1278 H   0  0  0  0  0  0  0  0  0  0  0  0
  -12.2280  -21.7254   20.4815 H   0  0  0  0  0  0  0  0  0  0  0  0
  -12.6701  -23.5082   19.6225 H   0  0  0  0  0  0  0  0  0  0  0  0
  -11.4847  -24.7122   20.3814 H   0  0  0  0  0  0  0  0  0  0  0  0
  -13.1529  -27.3608   19.1638 H   0  0  0  0  0  0  0  0  0  0  0  0
  -11.6406  -26.4540   18.8447 H   0  0  0  0  0  0  0  0  0  0  0  0
  -12.0816  -26.1105   16.6091 H   0  0  0  0  0  0  0  0  0  0  0  0
  -12.1795  -27.8124   17.0033 H   0  0  0  0  0  0  0  0  0  0  0  0
  -14.5153  -27.8989   16.7296 H   0  0  0  0  0  0  0  0  0  0  0  0
  -14.0326  -26.7439   15.4958 H   0  0  0  0  0  0  0  0  0  0  0  0
  -15.6020  -25.4069   16.4954 H   0  0  0  0  0  0  0  0  0  0  0  0
  -15.6026  -26.3393   17.9803 H   0  0  0  0  0  0  0  0  0  0  0  0
  -14.8266  -23.9989   18.0766 H   0  0  0  0  0  0  0  0  0  0  0  0
  -13.4339  -24.3699   17.1832 H   0  0  0  0  0  0  0  0  0  0  0  0
  1  2  2  0
  2  3  1  0
  3  4  2  3
  4  5  1  0
  5  6  2  0
  6  7  1  0
  7  8  2  0
  8  9  1  0
  9 10  1  0
 10 11  2  0
 11 12  1  0
 12 13  2  0
  2 14  1  0
 14 15  1  0
 15 16  1  0
 16 17  1  0
 17 18  1  0
 18 19  1  0
 19 20  1  0
 20 21  1  0
 21 22  1  0
 13  5  1  0
 22 17  1  0
 12  8  1  0
  3 23  1  0
  4 24  1  0
  6 25  1  0
  7 26  1  0
  9 27  1  0
 10 28  1  0
 11 29  1  0
 13 30  1  0
 15 31  1  0
 15 32  1  0
 16 33  1  0
 16 34  1  0
 18 35  1  0
 18 36  1  0
 19 37  1  0
 19 38  1  0
 20 39  1  0
 20 40  1  0
 21 41  1  0
 21 42  1  0
 22 43  1  0
 22 44  1  0
M  END
>  <Energy>  (667) 
293.00140997609611

>  <compound_id>  (667) 
11844

>  <target_id>  (667) 
1

>  <reference_id>  (667) 
9

>  <inspiration_ids>  (667) 
[40, 9]

>  <energy_score>  (667) 
227.39119545369255

>  <distance_score>  (667) 
12.857707917380537

>  <path>  (667) 
/opt/xchem-fragalysis-2/maxwin/BulkDock/SCRATCH/511015/C11844-P9/C11844-P9.minimised.mol

>  <scratch_subdir>  (667) 
/opt/xchem-fragalysis-2/maxwin/BulkDock/SCRATCH/511015/C11844-P9

>  <fragmenstein_runtime>  (667) 
14.454039812088013

>  <fragmenstein_outcome>  (667) 
too moved

>  <fragmenstein_mode>  (667) 
expansion

>  <fragmenstein_error>  (667) 


$$$$
C11846-P40
     RDKit          3D

 45 47  0  0  0  0  0  0  0  0999 V2000
   -7.7569  -17.0276   21.9418 C   0  0  0  0  0  0  0  0  0  0  0  0
   -7.2611  -16.6761   23.5346 N   0  0  0  0  0  0  0  0  0  0  0  0
   -6.7512  -18.2975   23.2551 C   0  0  0  0  0  0  0  0  0  0  0  0
   -7.3651  -19.5655   22.2680 C   0  0  0  0  0  0  0  0  0  0  0  0
   -8.7265  -20.0639   22.1248 N   0  0  0  0  0  0  0  0  0  0  0  0
   -9.9821  -19.3565   22.3171 C   0  0  0  0  0  0  0  0  0  0  0  0
  -11.2217  -20.2146   22.5604 C   0  0  0  0  0  0  0  0  0  0  0  0
  -11.3395  -21.1567   21.4078 C   0  0  0  0  0  0  0  0  0  0  0  0
   -9.9569  -21.4865   20.9035 C   0  0  0  0  0  0  0  0  0  0  0  0
   -8.8680  -21.4696   21.9229 C   0  0  0  0  0  0  0  0  0  0  0  0
   -8.1749  -15.8457   25.1576 C   0  0  0  0  0  0  0  0  0  0  0  0
   -8.5262  -14.6996   26.6734 C   0  0  0  0  0  0  0  0  0  0  0  0
   -7.6117  -13.7431   27.2765 C   0  0  0  0  0  0  0  0  0  0  0  0
   -7.6356  -13.2024   28.5999 C   0  0  0  0  0  0  0  0  0  0  0  0
   -8.8085  -12.8739   29.1966 C   0  0  0  0  0  0  0  0  0  0  0  0
   -9.8738  -13.2008   28.4059 C   0  0  0  0  0  0  0  0  0  0  0  0
  -11.1616  -12.7621   28.5679 N   0  0  0  0  0  0  0  0  0  0  0  0
  -12.0138  -13.5822   27.9067 C   0  0  0  0  0  0  0  0  0  0  0  0
  -11.2500  -14.5144   27.2492 C   0  0  0  0  0  0  0  0  0  0  0  0
   -9.8137  -14.1628   27.3534 C   0  0  0  0  0  0  0  0  0  0  0  0
   -7.8841  -16.2853   21.1758 H   0  0  0  0  0  0  0  0  0  0  0  0
   -8.4535  -17.8162   21.8411 H   0  0  0  0  0  0  0  0  0  0  0  0
   -6.9086  -17.4206   21.3322 H   0  0  0  0  0  0  0  0  0  0  0  0
   -6.2609  -18.6066   24.1334 H   0  0  0  0  0  0  0  0  0  0  0  0
   -5.8712  -18.0858   22.6475 H   0  0  0  0  0  0  0  0  0  0  0  0
   -6.7423  -20.4272   22.5195 H   0  0  0  0  0  0  0  0  0  0  0  0
   -7.0155  -19.3716   21.2422 H   0  0  0  0  0  0  0  0  0  0  0  0
   -9.9346  -18.7202   23.1805 H   0  0  0  0  0  0  0  0  0  0  0  0
  -10.1917  -18.8144   21.3919 H   0  0  0  0  0  0  0  0  0  0  0  0
  -11.1316  -20.7730   23.4992 H   0  0  0  0  0  0  0  0  0  0  0  0
  -12.1185  -19.5912   22.6477 H   0  0  0  0  0  0  0  0  0  0  0  0
  -11.8661  -22.0627   21.7204 H   0  0  0  0  0  0  0  0  0  0  0  0
  -11.9079  -20.6845   20.6032 H   0  0  0  0  0  0  0  0  0  0  0  0
   -9.6023  -20.7639   20.1622 H   0  0  0  0  0  0  0  0  0  0  0  0
  -10.0607  -22.4282   20.4372 H   0  0  0  0  0  0  0  0  0  0  0  0
   -9.1459  -21.9976   22.8362 H   0  0  0  0  0  0  0  0  0  0  0  0
   -7.9325  -21.9116   21.5841 H   0  0  0  0  0  0  0  0  0  0  0  0
   -7.6242  -14.9467   24.8975 H   0  0  0  0  0  0  0  0  0  0  0  0
   -9.2280  -16.0341   25.0172 H   0  0  0  0  0  0  0  0  0  0  0  0
   -6.7591  -13.4387   26.6775 H   0  0  0  0  0  0  0  0  0  0  0  0
   -6.7549  -12.7725   29.0660 H   0  0  0  0  0  0  0  0  0  0  0  0
   -8.8735  -12.2720   30.0908 H   0  0  0  0  0  0  0  0  0  0  0  0
  -11.4374  -12.0329   29.2094 H   0  0  0  0  0  0  0  0  0  0  0  0
  -13.0859  -13.4696   27.9892 H   0  0  0  0  0  0  0  0  0  0  0  0
  -11.6482  -15.3309   26.6585 H   0  0  0  0  0  0  0  0  0  0  0  0
  1  2  1  0
  2  3  1  0
  3  4  1  0
  4  5  1  0
  5  6  1  0
  6  7  1  0
  7  8  1  0
  8  9  1  0
  9 10  1  0
  2 11  1  0
 11 12  1  0
 12 13  2  0
 13 14  1  0
 14 15  2  0
 15 16  1  0
 16 17  1  0
 17 18  1  0
 18 19  2  0
 19 20  1  0
 10  5  1  0
 20 12  1  0
 20 16  2  0
  1 21  1  0
  1 22  1  0
  1 23  1  0
  3 24  1  0
  3 25  1  0
  4 26  1  0
  4 27  1  0
  6 28  1  0
  6 29  1  0
  7 30  1  0
  7 31  1  0
  8 32  1  0
  8 33  1  0
  9 34  1  0
  9 35  1  0
 10 36  1  0
 10 37  1  0
 11 38  1  0
 11 39  1  0
 13 40  1  0
 14 41  1  0
 15 42  1  0
 17 43  1  0
 18 44  1  0
 19 45  1  0
M  END
>  <Energy>  (668) 
518.25926798087687

>  <compound_id>  (668) 
11846

>  <target_id>  (668) 
1

>  <reference_id>  (668) 
40

>  <inspiration_ids>  (668) 
[40, 9]

>  <energy_score>  (668) 
416.8956933885238

>  <distance_score>  (668) 
11.96173764423658

>  <path>  (668) 
/opt/xchem-fragalysis-2/maxwin/BulkDock/SCRATCH/511015/C11846-P40/C11846-P40.minimised.mol

>  <scratch_subdir>  (668) 
/opt/xchem-fragalysis-2/maxwin/BulkDock/SCRATCH/511015/C11846-P40

>  <fragmenstein_runtime>  (668) 
12.647104263305664

>  <fragmenstein_outcome>  (668) 
too moved

>  <fragmenstein_mode>  (668) 
expansion

>  <fragmenstein_error>  (668) 


$$$$
C11846-P9
     RDKit          3D

 45 47  0  0  0  0  0  0  0  0999 V2000
  -10.7020  -19.4047   22.6157 C   0  0  0  0  0  0  0  0  0  0  0  0
  -11.8022  -20.0205   23.3209 N   0  0  0  0  0  0  0  0  0  0  0  0
  -12.4922  -20.8710   22.3688 C   0  0  0  0  0  0  0  0  0  0  0  0
  -11.7905  -22.1355   21.6780 C   0  0  0  0  0  0  0  0  0  0  0  0
  -12.6165  -22.9712   20.6715 N   0  0  0  0  0  0  0  0  0  0  0  0
  -12.7828  -22.2631   19.3143 C   0  0  0  0  0  0  0  0  0  0  0  0
  -13.5873  -23.5142   17.9442 C   0  0  0  0  0  0  0  0  0  0  0  0
  -13.5714  -25.0411   17.8478 C   0  0  0  0  0  0  0  0  0  0  0  0
  -13.1953  -25.5158   19.2067 C   0  0  0  0  0  0  0  0  0  0  0  0
  -12.4019  -24.4401   20.2833 C   0  0  0  0  0  0  0  0  0  0  0  0
  -12.7508  -19.1133   24.0928 C   0  0  0  0  0  0  0  0  0  0  0  0
  -12.7889  -17.5492   24.0604 C   0  0  0  0  0  0  0  0  0  0  0  0
  -13.1451  -16.9491   22.8306 C   0  0  0  0  0  0  0  0  0  0  0  0
  -13.4721  -15.5966   22.6899 C   0  0  0  0  0  0  0  0  0  0  0  0
  -13.5491  -14.7631   23.7910 C   0  0  0  0  0  0  0  0  0  0  0  0
  -13.1954  -15.3126   25.0237 C   0  0  0  0  0  0  0  0  0  0  0  0
  -13.1112  -14.6615   26.2363 N   0  0  0  0  0  0  0  0  0  0  0  0
  -12.7222  -15.5354   27.1986 C   0  0  0  0  0  0  0  0  0  0  0  0
  -12.5467  -16.7644   26.6001 C   0  0  0  0  0  0  0  0  0  0  0  0
  -12.7901  -16.6500   25.1933 C   0  0  0  0  0  0  0  0  0  0  0  0
   -9.9782  -20.1506   22.2714 H   0  0  0  0  0  0  0  0  0  0  0  0
  -10.1490  -18.7601   23.2724 H   0  0  0  0  0  0  0  0  0  0  0  0
  -11.0369  -18.8792   21.7197 H   0  0  0  0  0  0  0  0  0  0  0  0
  -12.8223  -20.1572   21.6017 H   0  0  0  0  0  0  0  0  0  0  0  0
  -13.3245  -21.2860   22.9470 H   0  0  0  0  0  0  0  0  0  0  0  0
  -10.8372  -21.8324   21.2349 H   0  0  0  0  0  0  0  0  0  0  0  0
  -11.5671  -22.6806   22.5793 H   0  0  0  0  0  0  0  0  0  0  0  0
  -13.3017  -21.2910   19.3104 H   0  0  0  0  0  0  0  0  0  0  0  0
  -11.8892  -21.8210   19.5733 H   0  0  0  0  0  0  0  0  0  0  0  0
  -13.7045  -23.1086   16.9487 H   0  0  0  0  0  0  0  0  0  0  0  0
  -14.6629  -23.6519   18.0996 H   0  0  0  0  0  0  0  0  0  0  0  0
  -12.8866  -25.4043   17.0669 H   0  0  0  0  0  0  0  0  0  0  0  0
  -14.5408  -25.4681   17.5478 H   0  0  0  0  0  0  0  0  0  0  0  0
  -12.5200  -26.3463   18.9526 H   0  0  0  0  0  0  0  0  0  0  0  0
  -14.0448  -26.0005   19.6894 H   0  0  0  0  0  0  0  0  0  0  0  0
  -12.6880  -25.0159   21.0853 H   0  0  0  0  0  0  0  0  0  0  0  0
  -11.3510  -24.6297   20.3987 H   0  0  0  0  0  0  0  0  0  0  0  0
  -13.7817  -19.3948   23.8281 H   0  0  0  0  0  0  0  0  0  0  0  0
  -12.6948  -19.4207   25.1421 H   0  0  0  0  0  0  0  0  0  0  0  0
  -13.2190  -17.5837   21.9461 H   0  0  0  0  0  0  0  0  0  0  0  0
  -13.7346  -15.2127   21.7065 H   0  0  0  0  0  0  0  0  0  0  0  0
  -13.8411  -13.7236   23.6876 H   0  0  0  0  0  0  0  0  0  0  0  0
  -13.3224  -13.6833   26.3769 H   0  0  0  0  0  0  0  0  0  0  0  0
  -12.6650  -15.2139   28.2261 H   0  0  0  0  0  0  0  0  0  0  0  0
  -12.3049  -17.6674   27.1371 H   0  0  0  0  0  0  0  0  0  0  0  0
  1  2  1  0
  2  3  1  0
  3  4  1  0
  4  5  1  0
  5  6  1  0
  6  7  1  0
  7  8  1  0
  8  9  1  0
  9 10  1  0
  2 11  1  0
 11 12  1  0
 12 13  2  0
 13 14  1  0
 14 15  2  0
 15 16  1  0
 16 17  1  0
 17 18  1  0
 18 19  2  0
 19 20  1  0
 10  5  1  0
 20 12  1  0
 20 16  2  0
  1 21  1  0
  1 22  1  0
  1 23  1  0
  3 24  1  0
  3 25  1  0
  4 26  1  0
  4 27  1  0
  6 28  1  0
  6 29  1  0
  7 30  1  0
  7 31  1  0
  8 32  1  0
  8 33  1  0
  9 34  1  0
  9 35  1  0
 10 36  1  0
 10 37  1  0
 11 38  1  0
 11 39  1  0
 13 40  1  0
 14 41  1  0
 15 42  1  0
 17 43  1  0
 18 44  1  0
 19 45  1  0
M  END
>  <Energy>  (669) 
246.40131759987594

>  <compound_id>  (669) 
11846

>  <target_id>  (669) 
1

>  <reference_id>  (669) 
9

>  <inspiration_ids>  (669) 
[40, 9]

>  <energy_score>  (669) 
145.03774300751695

>  <distance_score>  (669) 
13.354085177336541

>  <path>  (669) 
/opt/xchem-fragalysis-2/maxwin/BulkDock/SCRATCH/511015/C11846-P9/C11846-P9.minimised.mol

>  <scratch_subdir>  (669) 
/opt/xchem-fragalysis-2/maxwin/BulkDock/SCRATCH/511015/C11846-P9

>  <fragmenstein_runtime>  (669) 
13.344855308532715

>  <fragmenstein_outcome>  (669) 
too moved

>  <fragmenstein_mode>  (669) 
expansion

>  <fragmenstein_error>  (669) 


$$$$
C11847-P40
     RDKit          3D

 61 64  0  0  0  0  0  0  0  0999 V2000
   -6.8845  -19.0903   20.5689 C   0  0  0  0  0  0  0  0  0  0  0  0
   -7.0785  -19.2904   18.9719 C   0  0  0  0  0  0  0  0  0  0  0  0
   -5.6077  -18.1101   19.1190 N   0  0  0  0  0  0  0  0  0  0  0  0
   -4.8556  -17.3759   20.5216 C   0  0  0  0  0  0  0  0  0  0  0  0
   -5.2853  -17.4941   21.6352 O   0  0  0  0  0  0  0  0  0  0  0  0
   -3.2638  -16.1338   20.5368 C   0  0  0  0  0  0  0  0  0  0  0  0
   -2.5772  -14.4034   21.3984 N   0  0  0  0  0  0  0  0  0  0  0  0
   -3.0162  -12.4019   20.6949 C   0  0  0  0  0  0  0  0  0  0  0  0
   -3.5825  -10.5913   22.0324 C   0  0  0  0  0  0  0  0  0  0  0  0
   -2.8103   -9.6626   23.9186 C   0  0  0  0  0  0  0  0  0  0  0  0
   -1.8404   -7.6069   24.7637 C   0  0  0  0  0  0  0  0  0  0  0  0
   -0.7457   -6.0525   24.3368 C   0  0  0  0  0  0  0  0  0  0  0  0
    0.7487   -5.7546   25.6830 N   0  0  0  0  0  0  0  0  0  0  0  0
    0.5206   -6.7546   27.3727 C   0  0  0  0  0  0  0  0  0  0  0  0
    1.0559   -6.2647   28.6149 C   0  0  0  0  0  0  0  0  0  0  0  0
    0.3642   -6.4340   29.8003 C   0  0  0  0  0  0  0  0  0  0  0  0
   -0.8081   -7.1484   29.8065 C   0  0  0  0  0  0  0  0  0  0  0  0
   -1.2918   -7.7956   28.5979 C   0  0  0  0  0  0  0  0  0  0  0  0
   -1.0728   -7.8418   26.9195 C   0  0  0  0  0  0  0  0  0  0  0  0
   -3.2948  -11.8805   24.1169 C   0  0  0  0  0  0  0  0  0  0  0  0
   -3.4514  -14.0273   23.3243 C   0  0  0  0  0  0  0  0  0  0  0  0
   -8.5689  -19.8815   17.6559 C   0  0  0  0  0  0  0  0  0  0  0  0
   -9.3835  -19.0032   17.4414 O   0  0  0  0  0  0  0  0  0  0  0  0
   -8.4200  -21.1712   17.0561 N   0  0  0  0  0  0  0  0  0  0  0  0
   -9.5748  -22.1874   15.7629 C   0  0  0  0  0  0  0  0  0  0  0  0
   -9.6258  -23.8453   14.8006 C   0  0  0  0  0  0  0  0  0  0  0  0
   -9.4161  -23.4649   13.3984 C   0  0  0  0  0  0  0  0  0  0  0  0
   -8.8066  -22.1490   13.7708 C   0  0  0  0  0  0  0  0  0  0  0  0
   -9.1912  -21.8559   15.7200 C   0  0  0  0  0  0  0  0  0  0  0  0
   -7.0182  -18.0564   20.8739 H   0  0  0  0  0  0  0  0  0  0  0  0
   -7.5713  -19.4849   21.3173 H   0  0  0  0  0  0  0  0  0  0  0  0
   -5.8929  -19.4837   20.8149 H   0  0  0  0  0  0  0  0  0  0  0  0
   -7.8791  -19.5967   19.6610 H   0  0  0  0  0  0  0  0  0  0  0  0
   -5.0249  -17.9434   18.3132 H   0  0  0  0  0  0  0  0  0  0  0  0
   -3.1959  -15.7966   19.5407 H   0  0  0  0  0  0  0  0  0  0  0  0
   -3.8110  -16.1965   21.4745 H   0  0  0  0  0  0  0  0  0  0  0  0
   -2.1237  -12.5999   20.0316 H   0  0  0  0  0  0  0  0  0  0  0  0
   -3.8601  -12.4095   19.9459 H   0  0  0  0  0  0  0  0  0  0  0  0
   -3.4503   -9.6688   21.5022 H   0  0  0  0  0  0  0  0  0  0  0  0
   -4.5811  -10.3318   21.8767 H   0  0  0  0  0  0  0  0  0  0  0  0
   -3.6648   -9.1725   23.4708 H   0  0  0  0  0  0  0  0  0  0  0  0
   -0.1099   -5.8103   23.4657 H   0  0  0  0  0  0  0  0  0  0  0  0
    0.2751   -5.0601   26.2186 H   0  0  0  0  0  0  0  0  0  0  0  0
    1.9128   -5.5919   28.5865 H   0  0  0  0  0  0  0  0  0  0  0  0
    0.7355   -5.9834   30.7183 H   0  0  0  0  0  0  0  0  0  0  0  0
   -1.2957   -7.3612   30.7577 H   0  0  0  0  0  0  0  0  0  0  0  0
   -0.8593   -8.8144   28.8664 H   0  0  0  0  0  0  0  0  0  0  0  0
   -4.3808  -11.8575   24.1979 H   0  0  0  0  0  0  0  0  0  0  0  0
   -2.9112  -12.1384   25.1188 H   0  0  0  0  0  0  0  0  0  0  0  0
   -2.7419  -14.6915   23.8879 H   0  0  0  0  0  0  0  0  0  0  0  0
   -4.4755  -14.4516   23.3512 H   0  0  0  0  0  0  0  0  0  0  0  0
  -10.3803  -21.7045   14.6778 H   0  0  0  0  0  0  0  0  0  0  0  0
   -9.9173  -23.0734   16.4568 H   0  0  0  0  0  0  0  0  0  0  0  0
  -10.6313  -24.2672   14.8148 H   0  0  0  0  0  0  0  0  0  0  0  0
   -9.0749  -24.6621   15.2085 H   0  0  0  0  0  0  0  0  0  0  0  0
  -10.3732  -23.3296   12.8784 H   0  0  0  0  0  0  0  0  0  0  0  0
   -8.8238  -24.1394   12.7792 H   0  0  0  0  0  0  0  0  0  0  0  0
   -7.7447  -22.0226   13.5276 H   0  0  0  0  0  0  0  0  0  0  0  0
   -9.4339  -21.5033   13.1261 H   0  0  0  0  0  0  0  0  0  0  0  0
   -7.9298  -22.3300   15.4339 H   0  0  0  0  0  0  0  0  0  0  0  0
   -9.5619  -20.5622   15.3912 H   0  0  0  0  0  0  0  0  0  0  0  0
  1  2  1  0
  2  3  1  0
  3  4  1  0
  4  5  2  0
  4  6  1  0
  6  7  1  0
  7  8  1  0
  8  9  1  0
  9 10  1  0
 10 11  1  0
 11 12  2  0
 12 13  1  0
 13 14  1  0
 14 15  2  0
 15 16  1  0
 16 17  2  0
 17 18  1  0
 18 19  2  0
 10 20  1  0
 20 21  1  0
  2 22  1  0
 22 23  2  0
 22 24  1  0
 24 25  1  0
 25 26  1  0
 26 27  1  0
 27 28  1  0
 28 29  1  0
 21  7  1  0
 29 24  1  0
 19 11  1  0
 19 14  1  0
  1 30  1  0
  1 31  1  0
  1 32  1  0
  2 33  1  0
  3 34  1  0
  6 35  1  0
  6 36  1  0
  8 37  1  0
  8 38  1  0
  9 39  1  0
  9 40  1  0
 10 41  1  0
 12 42  1  0
 13 43  1  0
 15 44  1  0
 16 45  1  0
 17 46  1  0
 18 47  1  0
 20 48  1  0
 20 49  1  0
 21 50  1  0
 21 51  1  0
 25 52  1  0
 25 53  1  0
 26 54  1  0
 26 55  1  0
 27 56  1  0
 27 57  1  0
 28 58  1  0
 28 59  1  0
 29 60  1  0
 29 61  1  0
M  END
>  <Energy>  (670) 
4068.5840196637196

>  <compound_id>  (670) 
11847

>  <target_id>  (670) 
1

>  <reference_id>  (670) 
40

>  <inspiration_ids>  (670) 
[40, 9]

>  <energy_score>  (670) 
3932.0608417249073

>  <distance_score>  (670) 
3.635155652057481

>  <path>  (670) 
/opt/xchem-fragalysis-2/maxwin/BulkDock/SCRATCH/511015/C11847-P40/C11847-P40.minimised.mol

>  <scratch_subdir>  (670) 
/opt/xchem-fragalysis-2/maxwin/BulkDock/SCRATCH/511015/C11847-P40

>  <fragmenstein_runtime>  (670) 
26.101972818374634

>  <fragmenstein_outcome>  (670) 
too moved

>  <fragmenstein_mode>  (670) 
expansion

>  <fragmenstein_error>  (670) 


$$$$
C11847-P9
     RDKit          3D

 61 64  0  0  0  0  0  0  0  0999 V2000
   -6.7728  -19.3404   20.0973 C   0  0  0  0  0  0  0  0  0  0  0  0
   -6.3495  -19.7015   18.6436 C   0  0  0  0  0  0  0  0  0  0  0  0
   -4.9866  -18.4940   18.9716 N   0  0  0  0  0  0  0  0  0  0  0  0
   -4.6503  -17.5091   20.3539 C   0  0  0  0  0  0  0  0  0  0  0  0
   -5.3611  -17.4390   21.3422 O   0  0  0  0  0  0  0  0  0  0  0  0
   -3.1103  -16.1596   20.5187 C   0  0  0  0  0  0  0  0  0  0  0  0
   -2.5695  -14.4815   21.4499 N   0  0  0  0  0  0  0  0  0  0  0  0
   -3.2728  -12.6911   20.7080 C   0  0  0  0  0  0  0  0  0  0  0  0
   -3.6698  -10.8384   21.8700 C   0  0  0  0  0  0  0  0  0  0  0  0
   -3.1558  -10.6376   23.9624 C   0  0  0  0  0  0  0  0  0  0  0  0
   -2.0991   -9.7356   25.7274 C   0  0  0  0  0  0  0  0  0  0  0  0
   -2.4503   -8.0069   26.3477 C   0  0  0  0  0  0  0  0  0  0  0  0
   -1.7912   -7.6601   27.9799 N   0  0  0  0  0  0  0  0  0  0  0  0
   -0.5672   -8.8492   28.1827 C   0  0  0  0  0  0  0  0  0  0  0  0
    0.2373   -8.7268   29.3220 C   0  0  0  0  0  0  0  0  0  0  0  0
   -0.4898   -9.0196   30.4148 C   0  0  0  0  0  0  0  0  0  0  0  0
   -1.2683  -10.1466   30.3044 C   0  0  0  0  0  0  0  0  0  0  0  0
   -1.7429  -10.8081   29.0142 C   0  0  0  0  0  0  0  0  0  0  0  0
   -1.2448  -10.2834   27.5388 C   0  0  0  0  0  0  0  0  0  0  0  0
   -3.8846  -12.4872   24.3647 C   0  0  0  0  0  0  0  0  0  0  0  0
   -3.3490  -14.4172   23.4359 C   0  0  0  0  0  0  0  0  0  0  0  0
   -7.7855  -20.8196   17.6091 C   0  0  0  0  0  0  0  0  0  0  0  0
   -8.8414  -20.5740   18.0572 O   0  0  0  0  0  0  0  0  0  0  0  0
   -7.5738  -21.9806   16.0209 N   0  0  0  0  0  0  0  0  0  0  0  0
   -9.0243  -23.0244   15.1731 C   0  0  0  0  0  0  0  0  0  0  0  0
  -10.2613  -23.1318   13.8540 C   0  0  0  0  0  0  0  0  0  0  0  0
   -9.4610  -23.5609   12.7115 C   0  0  0  0  0  0  0  0  0  0  0  0
   -8.4132  -22.5717   13.1125 C   0  0  0  0  0  0  0  0  0  0  0  0
   -8.5332  -22.5596   15.0793 C   0  0  0  0  0  0  0  0  0  0  0  0
   -7.7290  -19.6696   20.4615 H   0  0  0  0  0  0  0  0  0  0  0  0
   -5.9597  -19.6377   20.7559 H   0  0  0  0  0  0  0  0  0  0  0  0
   -6.8592  -18.2706   20.1964 H   0  0  0  0  0  0  0  0  0  0  0  0
   -6.9029  -18.8150   18.2402 H   0  0  0  0  0  0  0  0  0  0  0  0
   -4.2878  -18.3090   18.2591 H   0  0  0  0  0  0  0  0  0  0  0  0
   -2.6012  -15.9544   19.5772 H   0  0  0  0  0  0  0  0  0  0  0  0
   -2.3623  -16.7750   20.9870 H   0  0  0  0  0  0  0  0  0  0  0  0
   -2.6169  -12.7434   19.7653 H   0  0  0  0  0  0  0  0  0  0  0  0
   -4.2276  -12.6659   20.1426 H   0  0  0  0  0  0  0  0  0  0  0  0
   -4.6759  -10.6264   21.5751 H   0  0  0  0  0  0  0  0  0  0  0  0
   -3.4362   -9.8646   21.4210 H   0  0  0  0  0  0  0  0  0  0  0  0
   -3.5992   -9.6821   23.7234 H   0  0  0  0  0  0  0  0  0  0  0  0
   -3.3538   -7.5609   26.6710 H   0  0  0  0  0  0  0  0  0  0  0  0
   -1.6443   -6.6907   28.2191 H   0  0  0  0  0  0  0  0  0  0  0  0
    0.9354   -7.9066   29.4870 H   0  0  0  0  0  0  0  0  0  0  0  0
   -0.2823   -8.5767   31.3843 H   0  0  0  0  0  0  0  0  0  0  0  0
   -1.6447  -10.3835   31.2727 H   0  0  0  0  0  0  0  0  0  0  0  0
   -2.5062  -11.6023   29.0344 H   0  0  0  0  0  0  0  0  0  0  0  0
   -4.9940  -12.3963   24.3466 H   0  0  0  0  0  0  0  0  0  0  0  0
   -3.3662  -12.4748   25.3743 H   0  0  0  0  0  0  0  0  0  0  0  0
   -2.5668  -14.8252   24.0886 H   0  0  0  0  0  0  0  0  0  0  0  0
   -4.2444  -15.0505   23.5229 H   0  0  0  0  0  0  0  0  0  0  0  0
   -9.8463  -22.9104   16.0731 H   0  0  0  0  0  0  0  0  0  0  0  0
   -9.0739  -24.1937   15.4741 H   0  0  0  0  0  0  0  0  0  0  0  0
  -10.7010  -22.1606   13.6307 H   0  0  0  0  0  0  0  0  0  0  0  0
  -11.0022  -23.8943   14.1026 H   0  0  0  0  0  0  0  0  0  0  0  0
   -9.9917  -23.3877   11.7753 H   0  0  0  0  0  0  0  0  0  0  0  0
   -9.1360  -24.6013   12.7779 H   0  0  0  0  0  0  0  0  0  0  0  0
   -7.4010  -22.7841   12.7334 H   0  0  0  0  0  0  0  0  0  0  0  0
   -8.6948  -21.6181   12.6651 H   0  0  0  0  0  0  0  0  0  0  0  0
   -7.6927  -21.9316   14.5046 H   0  0  0  0  0  0  0  0  0  0  0  0
   -9.4184  -21.4435   15.0516 H   0  0  0  0  0  0  0  0  0  0  0  0
  1  2  1  0
  2  3  1  0
  3  4  1  0
  4  5  2  0
  4  6  1  0
  6  7  1  0
  7  8  1  0
  8  9  1  0
  9 10  1  0
 10 11  1  0
 11 12  2  0
 12 13  1  0
 13 14  1  0
 14 15  2  0
 15 16  1  0
 16 17  2  0
 17 18  1  0
 18 19  2  0
 10 20  1  0
 20 21  1  0
  2 22  1  0
 22 23  2  0
 22 24  1  0
 24 25  1  0
 25 26  1  0
 26 27  1  0
 27 28  1  0
 28 29  1  0
 21  7  1  0
 29 24  1  0
 19 11  1  0
 19 14  1  0
  1 30  1  0
  1 31  1  0
  1 32  1  0
  2 33  1  0
  3 34  1  0
  6 35  1  0
  6 36  1  0
  8 37  1  0
  8 38  1  0
  9 39  1  0
  9 40  1  0
 10 41  1  0
 12 42  1  0
 13 43  1  0
 15 44  1  0
 16 45  1  0
 17 46  1  0
 18 47  1  0
 20 48  1  0
 20 49  1  0
 21 50  1  0
 21 51  1  0
 25 52  1  0
 25 53  1  0
 26 54  1  0
 26 55  1  0
 27 56  1  0
 27 57  1  0
 28 58  1  0
 28 59  1  0
 29 60  1  0
 29 61  1  0
M  END
>  <Energy>  (671) 
2777.5581743798366

>  <compound_id>  (671) 
11847

>  <target_id>  (671) 
1

>  <reference_id>  (671) 
9

>  <inspiration_ids>  (671) 
[40, 9]

>  <energy_score>  (671) 
2641.0349964411125

>  <distance_score>  (671) 
4.469781898764305

>  <path>  (671) 
/opt/xchem-fragalysis-2/maxwin/BulkDock/SCRATCH/511015/C11847-P9/C11847-P9.minimised.mol

>  <scratch_subdir>  (671) 
/opt/xchem-fragalysis-2/maxwin/BulkDock/SCRATCH/511015/C11847-P9

>  <fragmenstein_runtime>  (671) 
26.247778177261353

>  <fragmenstein_outcome>  (671) 
too moved

>  <fragmenstein_mode>  (671) 
expansion

>  <fragmenstein_error>  (671) 


$$$$
C11853-P40
     RDKit          3D

 54 56  0  0  0  0  0  0  0  0999 V2000
   -5.2031  -19.7880   20.6495 C   0  0  0  0  0  0  0  0  0  0  0  0
   -5.9665  -18.5782   21.2665 C   0  0  0  0  0  0  0  0  0  0  0  0
   -6.8319  -18.5606   22.4841 C   0  0  0  0  0  0  0  0  0  0  0  0
   -5.1884  -17.2356   20.9457 C   0  0  0  0  0  0  0  0  0  0  0  0
   -5.2211  -17.7790   19.0171 C   0  0  0  0  0  0  0  0  0  0  0  0
   -6.2909  -18.3725   17.8427 N   0  0  0  0  0  0  0  0  0  0  0  0
   -7.0973  -17.3881   17.2122 C   0  0  0  0  0  0  0  0  0  0  0  0
   -8.4242  -17.2071   16.4925 C   0  0  0  0  0  0  0  0  0  0  0  0
   -9.5061  -18.2125   16.9732 C   0  0  0  0  0  0  0  0  0  0  0  0
   -8.7681  -19.8891   17.7315 C   0  0  0  0  0  0  0  0  0  0  0  0
   -7.1064  -19.5507   18.0775 C   0  0  0  0  0  0  0  0  0  0  0  0
   -4.0673  -15.9919   22.0186 N   0  0  0  0  0  0  0  0  0  0  0  0
   -3.3766  -14.7646   23.5617 C   0  0  0  0  0  0  0  0  0  0  0  0
   -2.1360  -13.3710   24.6981 C   0  0  0  0  0  0  0  0  0  0  0  0
   -0.7441  -13.3931   23.6385 C   0  0  0  0  0  0  0  0  0  0  0  0
   -0.0132  -12.3341   23.1429 N   0  0  0  0  0  0  0  0  0  0  0  0
    1.1444  -12.5063   22.2916 C   0  0  0  0  0  0  0  0  0  0  0  0
   -0.2648  -11.1567   23.8037 C   0  0  0  0  0  0  0  0  0  0  0  0
    1.1867  -10.3973   24.9643 C   0  0  0  0  0  0  0  0  0  0  0  0
    1.2273   -8.9944   26.3151 C   0  0  0  0  0  0  0  0  0  0  0  0
   -0.7075   -8.4633   27.0480 C   0  0  0  0  0  0  0  0  0  0  0  0
   -1.9614   -9.9559   26.0185 C   0  0  0  0  0  0  0  0  0  0  0  0
   -2.1668  -11.2297   24.4397 C   0  0  0  0  0  0  0  0  0  0  0  0
   -4.9934  -20.7249   21.1473 H   0  0  0  0  0  0  0  0  0  0  0  0
   -5.5970  -20.0507   19.7108 H   0  0  0  0  0  0  0  0  0  0  0  0
   -4.1989  -19.5456   20.4040 H   0  0  0  0  0  0  0  0  0  0  0  0
   -6.8039  -18.5262   20.5859 H   0  0  0  0  0  0  0  0  0  0  0  0
   -7.5608  -17.7628   22.3468 H   0  0  0  0  0  0  0  0  0  0  0  0
   -6.2924  -18.3456   23.3874 H   0  0  0  0  0  0  0  0  0  0  0  0
   -7.4167  -19.4619   22.6237 H   0  0  0  0  0  0  0  0  0  0  0  0
   -6.1302  -16.7062   20.8240 H   0  0  0  0  0  0  0  0  0  0  0  0
   -4.6593  -17.0543   18.4245 H   0  0  0  0  0  0  0  0  0  0  0  0
   -4.5608  -18.6098   18.9131 H   0  0  0  0  0  0  0  0  0  0  0  0
   -7.5447  -17.1773   18.1635 H   0  0  0  0  0  0  0  0  0  0  0  0
   -6.3981  -16.7016   16.7200 H   0  0  0  0  0  0  0  0  0  0  0  0
   -8.8084  -16.1956   16.6894 H   0  0  0  0  0  0  0  0  0  0  0  0
   -8.2757  -17.2114   15.4114 H   0  0  0  0  0  0  0  0  0  0  0  0
  -10.0129  -18.4721   16.0271 H   0  0  0  0  0  0  0  0  0  0  0  0
  -10.3322  -17.6653   17.4326 H   0  0  0  0  0  0  0  0  0  0  0  0
   -8.9432  -20.7544   17.0962 H   0  0  0  0  0  0  0  0  0  0  0  0
   -9.1565  -20.2503   18.6876 H   0  0  0  0  0  0  0  0  0  0  0  0
   -6.5704  -20.4015   17.6957 H   0  0  0  0  0  0  0  0  0  0  0  0
   -7.1787  -19.4472   19.1312 H   0  0  0  0  0  0  0  0  0  0  0  0
   -3.1838  -16.3137   21.5975 H   0  0  0  0  0  0  0  0  0  0  0  0
   -3.2691  -15.5530   24.3185 H   0  0  0  0  0  0  0  0  0  0  0  0
   -4.3627  -14.2868   23.5442 H   0  0  0  0  0  0  0  0  0  0  0  0
   -0.6135  -14.2734   23.0807 H   0  0  0  0  0  0  0  0  0  0  0  0
    1.4224  -11.5434   21.8561 H   0  0  0  0  0  0  0  0  0  0  0  0
    1.9620  -12.9047   22.8979 H   0  0  0  0  0  0  0  0  0  0  0  0
    0.8868  -13.2037   21.4900 H   0  0  0  0  0  0  0  0  0  0  0  0
    2.1559  -10.7098   24.5370 H   0  0  0  0  0  0  0  0  0  0  0  0
    2.1628   -8.6908   26.7918 H   0  0  0  0  0  0  0  0  0  0  0  0
   -0.6871   -8.2038   28.1492 H   0  0  0  0  0  0  0  0  0  0  0  0
   -2.8419   -9.5253   25.3984 H   0  0  0  0  0  0  0  0  0  0  0  0
  1  2  1  0
  2  3  1  0
  2  4  1  0
  4  5  1  0
  5  6  1  0
  6  7  1  0
  7  8  1  0
  8  9  1  0
  9 10  1  0
 10 11  1  0
  4 12  1  0
 12 13  1  0
 13 14  1  0
 14 15  2  0
 15 16  1  0
 16 17  1  0
 16 18  1  0
 18 19  2  0
 19 20  1  0
 20 21  2  0
 21 22  1  0
 22 23  2  0
 11  6  1  0
 23 14  1  0
 23 18  1  0
  1 24  1  0
  1 25  1  0
  1 26  1  0
  2 27  1  0
  3 28  1  0
  3 29  1  0
  3 30  1  0
  4 31  1  0
  5 32  1  0
  5 33  1  0
  7 34  1  0
  7 35  1  0
  8 36  1  0
  8 37  1  0
  9 38  1  0
  9 39  1  0
 10 40  1  0
 10 41  1  0
 11 42  1  0
 11 43  1  0
 12 44  1  0
 13 45  1  0
 13 46  1  0
 15 47  1  0
 17 48  1  0
 17 49  1  0
 17 50  1  0
 19 51  1  0
 20 52  1  0
 21 53  1  0
 22 54  1  0
M  END
>  <Energy>  (672) 
1993.0200001492221

>  <compound_id>  (672) 
11853

>  <target_id>  (672) 
1

>  <reference_id>  (672) 
40

>  <inspiration_ids>  (672) 
[40, 9]

>  <energy_score>  (672) 
1873.5827030324308

>  <distance_score>  (672) 
9.33513757371139

>  <path>  (672) 
/opt/xchem-fragalysis-2/maxwin/BulkDock/SCRATCH/511015/C11853-P40/C11853-P40.minimised.mol

>  <scratch_subdir>  (672) 
/opt/xchem-fragalysis-2/maxwin/BulkDock/SCRATCH/511015/C11853-P40

>  <fragmenstein_runtime>  (672) 
21.49936580657959

>  <fragmenstein_outcome>  (672) 
too moved

>  <fragmenstein_mode>  (672) 
expansion

>  <fragmenstein_error>  (672) 


$$$$
C11853-P9
     RDKit          3D

 54 56  0  0  0  0  0  0  0  0999 V2000
   -7.4660  -19.5084   22.5203 C   0  0  0  0  0  0  0  0  0  0  0  0
   -6.8496  -18.5303   21.5980 C   0  0  0  0  0  0  0  0  0  0  0  0
   -7.6783  -17.3792   21.8616 C   0  0  0  0  0  0  0  0  0  0  0  0
   -5.9078  -18.1614   20.4206 C   0  0  0  0  0  0  0  0  0  0  0  0
   -6.4699  -19.3503   18.6331 C   0  0  0  0  0  0  0  0  0  0  0  0
   -7.2604  -20.8999   17.4465 N   0  0  0  0  0  0  0  0  0  0  0  0
   -8.7861  -20.7518   17.5507 C   0  0  0  0  0  0  0  0  0  0  0  0
   -9.6819  -21.2525   15.9847 C   0  0  0  0  0  0  0  0  0  0  0  0
   -9.5327  -21.8911   14.5139 C   0  0  0  0  0  0  0  0  0  0  0  0
   -8.0708  -22.0280   14.2661 C   0  0  0  0  0  0  0  0  0  0  0  0
   -7.6950  -22.2223   15.8286 C   0  0  0  0  0  0  0  0  0  0  0  0
   -4.9386  -16.7426   21.6921 N   0  0  0  0  0  0  0  0  0  0  0  0
   -4.7903  -15.1579   23.1331 C   0  0  0  0  0  0  0  0  0  0  0  0
   -5.7999  -13.3504   23.4492 C   0  0  0  0  0  0  0  0  0  0  0  0
   -6.6246  -12.1903   22.5814 C   0  0  0  0  0  0  0  0  0  0  0  0
   -6.9578  -10.8687   23.0852 N   0  0  0  0  0  0  0  0  0  0  0  0
   -7.5848   -9.7011   22.4846 C   0  0  0  0  0  0  0  0  0  0  0  0
   -5.9101  -10.6591   23.8389 C   0  0  0  0  0  0  0  0  0  0  0  0
   -4.8012   -9.8081   23.6585 C   0  0  0  0  0  0  0  0  0  0  0  0
   -3.6725  -10.4485   24.1626 C   0  0  0  0  0  0  0  0  0  0  0  0
   -3.8724  -11.5009   25.0255 C   0  0  0  0  0  0  0  0  0  0  0  0
   -5.1790  -11.4546   25.4767 C   0  0  0  0  0  0  0  0  0  0  0  0
   -5.8211  -11.9423   24.4526 C   0  0  0  0  0  0  0  0  0  0  0  0
   -8.2007  -20.2385   22.2286 H   0  0  0  0  0  0  0  0  0  0  0  0
   -6.6912  -20.0804   22.9690 H   0  0  0  0  0  0  0  0  0  0  0  0
   -7.9203  -19.0442   23.3504 H   0  0  0  0  0  0  0  0  0  0  0  0
   -6.0914  -18.4548   22.3407 H   0  0  0  0  0  0  0  0  0  0  0  0
   -7.5891  -16.5559   21.1707 H   0  0  0  0  0  0  0  0  0  0  0  0
   -7.6117  -17.0780   22.8817 H   0  0  0  0  0  0  0  0  0  0  0  0
   -8.6272  -17.7813   21.8221 H   0  0  0  0  0  0  0  0  0  0  0  0
   -5.0574  -18.8352   20.4614 H   0  0  0  0  0  0  0  0  0  0  0  0
   -6.9482  -18.5458   18.0609 H   0  0  0  0  0  0  0  0  0  0  0  0
   -5.4646  -19.4342   18.1994 H   0  0  0  0  0  0  0  0  0  0  0  0
   -9.1056  -21.1977   18.4681 H   0  0  0  0  0  0  0  0  0  0  0  0
   -9.1891  -19.7886   17.7463 H   0  0  0  0  0  0  0  0  0  0  0  0
   -9.9644  -22.1734   16.3702 H   0  0  0  0  0  0  0  0  0  0  0  0
  -10.0122  -20.2971   15.6446 H   0  0  0  0  0  0  0  0  0  0  0  0
   -9.9863  -22.8977   14.4746 H   0  0  0  0  0  0  0  0  0  0  0  0
  -10.1112  -21.3675   13.7404 H   0  0  0  0  0  0  0  0  0  0  0  0
   -7.3298  -21.3631   13.8006 H   0  0  0  0  0  0  0  0  0  0  0  0
   -8.1275  -22.6884   13.3972 H   0  0  0  0  0  0  0  0  0  0  0  0
   -8.5700  -22.9651   15.8720 H   0  0  0  0  0  0  0  0  0  0  0  0
   -7.1824  -23.1504   15.9430 H   0  0  0  0  0  0  0  0  0  0  0  0
   -5.6743  -16.9912   22.3378 H   0  0  0  0  0  0  0  0  0  0  0  0
   -3.7775  -15.0732   23.5504 H   0  0  0  0  0  0  0  0  0  0  0  0
   -5.2266  -15.4325   24.0835 H   0  0  0  0  0  0  0  0  0  0  0  0
   -6.4848  -12.0297   21.5312 H   0  0  0  0  0  0  0  0  0  0  0  0
   -8.6650   -9.8563   22.4402 H   0  0  0  0  0  0  0  0  0  0  0  0
   -7.1303   -9.5032   21.5114 H   0  0  0  0  0  0  0  0  0  0  0  0
   -7.4224   -8.8317   23.1324 H   0  0  0  0  0  0  0  0  0  0  0  0
   -4.7745   -9.0396   22.9015 H   0  0  0  0  0  0  0  0  0  0  0  0
   -2.6684  -10.2276   23.9116 H   0  0  0  0  0  0  0  0  0  0  0  0
   -3.0603  -11.8693   25.6469 H   0  0  0  0  0  0  0  0  0  0  0  0
   -5.6349  -11.5254   26.4616 H   0  0  0  0  0  0  0  0  0  0  0  0
  1  2  1  0
  2  3  1  0
  2  4  1  0
  4  5  1  0
  5  6  1  0
  6  7  1  0
  7  8  1  0
  8  9  1  0
  9 10  1  0
 10 11  1  0
  4 12  1  0
 12 13  1  0
 13 14  1  0
 14 15  2  0
 15 16  1  0
 16 17  1  0
 16 18  1  0
 18 19  2  0
 19 20  1  0
 20 21  2  0
 21 22  1  0
 22 23  2  0
 11  6  1  0
 23 14  1  0
 23 18  1  0
  1 24  1  0
  1 25  1  0
  1 26  1  0
  2 27  1  0
  3 28  1  0
  3 29  1  0
  3 30  1  0
  4 31  1  0
  5 32  1  0
  5 33  1  0
  7 34  1  0
  7 35  1  0
  8 36  1  0
  8 37  1  0
  9 38  1  0
  9 39  1  0
 10 40  1  0
 10 41  1  0
 11 42  1  0
 11 43  1  0
 12 44  1  0
 13 45  1  0
 13 46  1  0
 15 47  1  0
 17 48  1  0
 17 49  1  0
 17 50  1  0
 19 51  1  0
 20 52  1  0
 21 53  1  0
 22 54  1  0
M  END
>  <Energy>  (673) 
1612.6919247780413

>  <compound_id>  (673) 
11853

>  <target_id>  (673) 
1

>  <reference_id>  (673) 
9

>  <inspiration_ids>  (673) 
[40, 9]

>  <energy_score>  (673) 
1493.2546276612563

>  <distance_score>  (673) 
9.258959889488795

>  <path>  (673) 
/opt/xchem-fragalysis-2/maxwin/BulkDock/SCRATCH/511015/C11853-P9/C11853-P9.minimised.mol

>  <scratch_subdir>  (673) 
/opt/xchem-fragalysis-2/maxwin/BulkDock/SCRATCH/511015/C11853-P9

>  <fragmenstein_runtime>  (673) 
20.252286434173584

>  <fragmenstein_outcome>  (673) 
too moved

>  <fragmenstein_mode>  (673) 
expansion

>  <fragmenstein_error>  (673) 


$$$$
C11854-P40
     RDKit          3D

 40 42  0  0  0  0  0  0  0  0999 V2000
   -8.0164  -16.0341   24.9230 O   0  0  0  0  0  0  0  0  0  0  0  0
   -7.2553  -16.0909   23.8008 C   0  0  0  0  0  0  0  0  0  0  0  0
   -7.5708  -17.5768   22.6273 O   0  0  0  0  0  0  0  0  0  0  0  0
   -8.5836  -19.2618   22.2615 C   0  0  0  0  0  0  0  0  0  0  0  0
   -9.5810  -20.7691   21.1639 C   0  0  0  0  0  0  0  0  0  0  0  0
  -10.6092  -22.4425   20.8159 N   0  0  0  0  0  0  0  0  0  0  0  0
  -12.1320  -22.6513   20.6203 C   0  0  0  0  0  0  0  0  0  0  0  0
  -12.7908  -24.3556   19.9608 C   0  0  0  0  0  0  0  0  0  0  0  0
  -12.9460  -25.4555   18.9398 C   0  0  0  0  0  0  0  0  0  0  0  0
  -11.5135  -25.7107   19.0280 C   0  0  0  0  0  0  0  0  0  0  0  0
  -10.5859  -24.3709   20.3511 C   0  0  0  0  0  0  0  0  0  0  0  0
   -6.1836  -14.4639   23.7104 C   0  0  0  0  0  0  0  0  0  0  0  0
   -4.8061  -14.5197   23.4505 C   0  0  0  0  0  0  0  0  0  0  0  0
   -5.1070  -13.2106   23.5519 N   0  0  0  0  0  0  0  0  0  0  0  0
   -4.3805  -12.3263   24.3553 C   0  0  0  0  0  0  0  0  0  0  0  0
   -3.1954  -12.3345   25.5708 C   0  0  0  0  0  0  0  0  0  0  0  0
   -3.8220  -12.0892   26.9555 C   0  0  0  0  0  0  0  0  0  0  0  0
   -5.5703  -11.9202   27.1026 C   0  0  0  0  0  0  0  0  0  0  0  0
   -6.4770  -12.1229   26.0083 C   0  0  0  0  0  0  0  0  0  0  0  0
   -5.9183  -12.6297   24.5674 C   0  0  0  0  0  0  0  0  0  0  0  0
   -9.3694  -19.0661   22.9840 H   0  0  0  0  0  0  0  0  0  0  0  0
   -7.7245  -19.8560   22.5723 H   0  0  0  0  0  0  0  0  0  0  0  0
   -8.9637  -20.7703   20.2613 H   0  0  0  0  0  0  0  0  0  0  0  0
  -10.4508  -20.1392   20.9247 H   0  0  0  0  0  0  0  0  0  0  0  0
  -12.4125  -21.8745   19.9118 H   0  0  0  0  0  0  0  0  0  0  0  0
  -12.5240  -22.5485   21.6316 H   0  0  0  0  0  0  0  0  0  0  0  0
  -12.6200  -24.9807   20.7860 H   0  0  0  0  0  0  0  0  0  0  0  0
  -13.8061  -24.4597   19.8202 H   0  0  0  0  0  0  0  0  0  0  0  0
  -13.3807  -25.1654   17.9675 H   0  0  0  0  0  0  0  0  0  0  0  0
  -13.5442  -26.3161   19.2819 H   0  0  0  0  0  0  0  0  0  0  0  0
  -11.3706  -26.7971   19.0422 H   0  0  0  0  0  0  0  0  0  0  0  0
  -11.1432  -25.8578   17.9614 H   0  0  0  0  0  0  0  0  0  0  0  0
   -9.5172  -24.6335   20.4825 H   0  0  0  0  0  0  0  0  0  0  0  0
  -11.1080  -24.7613   21.1339 H   0  0  0  0  0  0  0  0  0  0  0  0
   -3.9297  -15.1290   23.4254 H   0  0  0  0  0  0  0  0  0  0  0  0
   -5.6582  -12.7547   22.7835 H   0  0  0  0  0  0  0  0  0  0  0  0
   -2.3212  -12.9664   25.4746 H   0  0  0  0  0  0  0  0  0  0  0  0
   -3.2205  -11.9331   27.8464 H   0  0  0  0  0  0  0  0  0  0  0  0
   -6.0498  -11.7279   28.0737 H   0  0  0  0  0  0  0  0  0  0  0  0
   -7.4938  -11.8736   26.2636 H   0  0  0  0  0  0  0  0  0  0  0  0
  1  2  2  0
  2  3  1  0
  3  4  1  0
  4  5  1  0
  5  6  1  0
  6  7  1  0
  7  8  1  0
  8  9  1  0
  9 10  1  0
 10 11  1  0
  2 12  1  0
 12 13  2  0
 13 14  1  0
 14 15  1  0
 15 16  2  0
 16 17  1  0
 17 18  2  0
 18 19  1  0
 19 20  2  0
 11  6  1  0
 20 12  1  0
 20 15  1  0
  4 21  1  0
  4 22  1  0
  5 23  1  0
  5 24  1  0
  7 25  1  0
  7 26  1  0
  8 27  1  0
  8 28  1  0
  9 29  1  0
  9 30  1  0
 10 31  1  0
 10 32  1  0
 11 33  1  0
 11 34  1  0
 13 35  1  0
 14 36  1  0
 16 37  1  0
 17 38  1  0
 18 39  1  0
 19 40  1  0
M  END
>  <Energy>  (674) 
1367.1519754883557

>  <compound_id>  (674) 
11854

>  <target_id>  (674) 
1

>  <reference_id>  (674) 
40

>  <inspiration_ids>  (674) 
[40, 9]

>  <energy_score>  (674) 
1289.3124128210154

>  <distance_score>  (674) 
9.170855523237892

>  <path>  (674) 
/opt/xchem-fragalysis-2/maxwin/BulkDock/SCRATCH/511015/C11854-P40/C11854-P40.minimised.mol

>  <scratch_subdir>  (674) 
/opt/xchem-fragalysis-2/maxwin/BulkDock/SCRATCH/511015/C11854-P40

>  <fragmenstein_runtime>  (674) 
8.599585056304932

>  <fragmenstein_outcome>  (674) 
too moved

>  <fragmenstein_mode>  (674) 
expansion

>  <fragmenstein_error>  (674) 


$$$$
C11854-P9
     RDKit          3D

 40 42  0  0  0  0  0  0  0  0999 V2000
   -3.6526  -16.2217   21.2054 O   0  0  0  0  0  0  0  0  0  0  0  0
   -4.1730  -16.3771   22.3358 C   0  0  0  0  0  0  0  0  0  0  0  0
   -5.3941  -17.4305   22.2605 O   0  0  0  0  0  0  0  0  0  0  0  0
   -6.1529  -18.0143   21.0684 C   0  0  0  0  0  0  0  0  0  0  0  0
   -7.3225  -18.9514   21.5233 C   0  0  0  0  0  0  0  0  0  0  0  0
   -7.9579  -19.8703   20.5376 N   0  0  0  0  0  0  0  0  0  0  0  0
   -8.3422  -19.2504   19.2697 C   0  0  0  0  0  0  0  0  0  0  0  0
   -9.4867  -18.2496   19.3956 C   0  0  0  0  0  0  0  0  0  0  0  0
  -10.7027  -18.7694   20.1675 C   0  0  0  0  0  0  0  0  0  0  0  0
  -10.3510  -19.6334   21.3753 C   0  0  0  0  0  0  0  0  0  0  0  0
   -9.1329  -20.5121   21.1351 C   0  0  0  0  0  0  0  0  0  0  0  0
   -3.5709  -15.6092   24.1203 C   0  0  0  0  0  0  0  0  0  0  0  0
   -2.5326  -14.7524   24.3913 C   0  0  0  0  0  0  0  0  0  0  0  0
   -2.3563  -14.1157   25.8472 N   0  0  0  0  0  0  0  0  0  0  0  0
   -2.2388  -15.2208   26.6728 C   0  0  0  0  0  0  0  0  0  0  0  0
   -1.9543  -15.4370   28.0595 C   0  0  0  0  0  0  0  0  0  0  0  0
   -1.6210  -16.6796   28.5239 C   0  0  0  0  0  0  0  0  0  0  0  0
   -1.5967  -17.7002   27.6172 C   0  0  0  0  0  0  0  0  0  0  0  0
   -2.0971  -17.5514   26.2909 C   0  0  0  0  0  0  0  0  0  0  0  0
   -2.7119  -16.3394   25.6714 C   0  0  0  0  0  0  0  0  0  0  0  0
   -5.4604  -18.5359   20.4028 H   0  0  0  0  0  0  0  0  0  0  0  0
   -6.6356  -17.2007   20.5391 H   0  0  0  0  0  0  0  0  0  0  0  0
   -8.0684  -18.2901   21.9696 H   0  0  0  0  0  0  0  0  0  0  0  0
   -6.9745  -19.5659   22.3539 H   0  0  0  0  0  0  0  0  0  0  0  0
   -8.6260  -20.0451   18.5736 H   0  0  0  0  0  0  0  0  0  0  0  0
   -7.4763  -18.7658   18.8039 H   0  0  0  0  0  0  0  0  0  0  0  0
   -9.0953  -17.3611   19.8962 H   0  0  0  0  0  0  0  0  0  0  0  0
   -9.7848  -17.8980   18.4032 H   0  0  0  0  0  0  0  0  0  0  0  0
  -11.3857  -19.3270   19.5492 H   0  0  0  0  0  0  0  0  0  0  0  0
  -11.3725  -17.9486   20.4156 H   0  0  0  0  0  0  0  0  0  0  0  0
  -10.1769  -19.0320   22.2674 H   0  0  0  0  0  0  0  0  0  0  0  0
  -11.2123  -20.2664   21.6247 H   0  0  0  0  0  0  0  0  0  0  0  0
   -8.8427  -21.0261   22.0550 H   0  0  0  0  0  0  0  0  0  0  0  0
   -9.4753  -21.2964   20.4723 H   0  0  0  0  0  0  0  0  0  0  0  0
   -1.6524  -14.5561   23.7842 H   0  0  0  0  0  0  0  0  0  0  0  0
   -1.9267  -13.2061   25.9859 H   0  0  0  0  0  0  0  0  0  0  0  0
   -1.9536  -14.6127   28.7582 H   0  0  0  0  0  0  0  0  0  0  0  0
   -1.3420  -16.8343   29.5592 H   0  0  0  0  0  0  0  0  0  0  0  0
   -1.2689  -18.6882   27.9344 H   0  0  0  0  0  0  0  0  0  0  0  0
   -2.0227  -18.5165   25.8196 H   0  0  0  0  0  0  0  0  0  0  0  0
  1  2  2  0
  2  3  1  0
  3  4  1  0
  4  5  1  0
  5  6  1  0
  6  7  1  0
  7  8  1  0
  8  9  1  0
  9 10  1  0
 10 11  1  0
  2 12  1  0
 12 13  2  0
 13 14  1  0
 14 15  1  0
 15 16  2  0
 16 17  1  0
 17 18  2  0
 18 19  1  0
 19 20  2  0
 11  6  1  0
 20 12  1  0
 20 15  1  0
  4 21  1  0
  4 22  1  0
  5 23  1  0
  5 24  1  0
  7 25  1  0
  7 26  1  0
  8 27  1  0
  8 28  1  0
  9 29  1  0
  9 30  1  0
 10 31  1  0
 10 32  1  0
 11 33  1  0
 11 34  1  0
 13 35  1  0
 14 36  1  0
 16 37  1  0
 17 38  1  0
 18 39  1  0
 19 40  1  0
M  END
>  <Energy>  (675) 
351.63894569878312

>  <compound_id>  (675) 
11854

>  <target_id>  (675) 
1

>  <reference_id>  (675) 
9

>  <inspiration_ids>  (675) 
[40, 9]

>  <energy_score>  (675) 
273.79938303143615

>  <distance_score>  (675) 
11.129104606464367

>  <path>  (675) 
/opt/xchem-fragalysis-2/maxwin/BulkDock/SCRATCH/511015/C11854-P9/C11854-P9.minimised.mol

>  <scratch_subdir>  (675) 
/opt/xchem-fragalysis-2/maxwin/BulkDock/SCRATCH/511015/C11854-P9

>  <fragmenstein_runtime>  (675) 
8.814555644989014

>  <fragmenstein_outcome>  (675) 
too moved

>  <fragmenstein_mode>  (675) 
expansion

>  <fragmenstein_error>  (675) 


$$$$
C11855-P40
     RDKit          3D

 40 42  0  0  0  0  0  0  0  0999 V2000
   -4.9165  -17.1978   22.0761 O   0  0  0  0  0  0  0  0  0  0  0  0
   -4.0546  -16.3133   22.1326 C   0  0  0  0  0  0  0  0  0  0  0  0
   -3.4302  -16.1391   20.8143 O   0  0  0  0  0  0  0  0  0  0  0  0
   -3.3772  -17.2599   19.8049 C   0  0  0  0  0  0  0  0  0  0  0  0
   -4.5032  -18.4021   19.5076 C   0  0  0  0  0  0  0  0  0  0  0  0
   -5.8133  -18.0244   18.9921 N   0  0  0  0  0  0  0  0  0  0  0  0
   -6.2106  -18.9077   17.9291 C   0  0  0  0  0  0  0  0  0  0  0  0
   -6.7998  -20.2080   18.4478 C   0  0  0  0  0  0  0  0  0  0  0  0
   -8.0637  -19.8964   19.2332 C   0  0  0  0  0  0  0  0  0  0  0  0
   -7.6189  -19.1443   20.4536 C   0  0  0  0  0  0  0  0  0  0  0  0
   -6.9244  -17.8905   19.9639 C   0  0  0  0  0  0  0  0  0  0  0  0
   -3.5126  -15.4127   23.8174 C   0  0  0  0  0  0  0  0  0  0  0  0
   -2.3226  -14.6519   24.0727 C   0  0  0  0  0  0  0  0  0  0  0  0
   -2.1822  -13.7882   25.4126 N   0  0  0  0  0  0  0  0  0  0  0  0
   -2.2514  -14.7798   26.3586 C   0  0  0  0  0  0  0  0  0  0  0  0
   -1.9669  -15.0155   27.7886 C   0  0  0  0  0  0  0  0  0  0  0  0
   -1.7153  -16.2523   28.3298 C   0  0  0  0  0  0  0  0  0  0  0  0
   -1.3977  -16.3923   29.6217 F   0  0  0  0  0  0  0  0  0  0  0  0
   -1.6909  -17.3164   27.4981 C   0  0  0  0  0  0  0  0  0  0  0  0
   -2.1473  -17.1941   26.1589 C   0  0  0  0  0  0  0  0  0  0  0  0
   -2.7618  -15.9993   25.4187 C   0  0  0  0  0  0  0  0  0  0  0  0
   -2.4414  -17.7870   20.0381 H   0  0  0  0  0  0  0  0  0  0  0  0
   -3.1521  -16.7799   18.8508 H   0  0  0  0  0  0  0  0  0  0  0  0
   -4.6506  -19.1678   20.2663 H   0  0  0  0  0  0  0  0  0  0  0  0
   -3.9744  -18.9774   18.7312 H   0  0  0  0  0  0  0  0  0  0  0  0
   -5.3811  -19.1001   17.2383 H   0  0  0  0  0  0  0  0  0  0  0  0
   -6.9464  -18.3149   17.3837 H   0  0  0  0  0  0  0  0  0  0  0  0
   -7.0074  -20.8552   17.6169 H   0  0  0  0  0  0  0  0  0  0  0  0
   -6.0639  -20.7392   19.0640 H   0  0  0  0  0  0  0  0  0  0  0  0
   -8.7537  -19.2893   18.6366 H   0  0  0  0  0  0  0  0  0  0  0  0
   -8.6308  -20.7547   19.5608 H   0  0  0  0  0  0  0  0  0  0  0  0
   -8.4840  -18.8815   21.0712 H   0  0  0  0  0  0  0  0  0  0  0  0
   -6.9493  -19.7482   21.0764 H   0  0  0  0  0  0  0  0  0  0  0  0
   -6.6449  -17.3109   20.8198 H   0  0  0  0  0  0  0  0  0  0  0  0
   -7.7064  -17.2905   19.4834 H   0  0  0  0  0  0  0  0  0  0  0  0
   -1.4306  -14.5032   23.4455 H   0  0  0  0  0  0  0  0  0  0  0  0
   -1.7017  -12.8979   25.4324 H   0  0  0  0  0  0  0  0  0  0  0  0
   -1.9828  -14.2245   28.5176 H   0  0  0  0  0  0  0  0  0  0  0  0
   -1.3863  -18.2891   27.8711 H   0  0  0  0  0  0  0  0  0  0  0  0
   -2.0003  -18.1589   25.7169 H   0  0  0  0  0  0  0  0  0  0  0  0
  1  2  2  0
  2  3  1  0
  3  4  1  0
  4  5  1  0
  5  6  1  0
  6  7  1  0
  7  8  1  0
  8  9  1  0
  9 10  1  0
 10 11  1  0
  2 12  1  0
 12 13  2  0
 13 14  1  0
 14 15  1  0
 15 16  2  0
 16 17  1  0
 17 18  1  0
 17 19  2  0
 19 20  1  0
 20 21  2  0
 11  6  1  0
 21 12  1  0
 21 15  1  0
  4 22  1  0
  4 23  1  0
  5 24  1  0
  5 25  1  0
  7 26  1  0
  7 27  1  0
  8 28  1  0
  8 29  1  0
  9 30  1  0
  9 31  1  0
 10 32  1  0
 10 33  1  0
 11 34  1  0
 11 35  1  0
 13 36  1  0
 14 37  1  0
 16 38  1  0
 19 39  1  0
 20 40  1  0
M  END
>  <Energy>  (676) 
349.81422015351262

>  <compound_id>  (676) 
11855

>  <target_id>  (676) 
1

>  <reference_id>  (676) 
40

>  <inspiration_ids>  (676) 
[40, 9]

>  <energy_score>  (676) 
276.7163499774806

>  <distance_score>  (676) 
11.450585525595386

>  <path>  (676) 
/opt/xchem-fragalysis-2/maxwin/BulkDock/SCRATCH/511015/C11855-P40/C11855-P40.minimised.mol

>  <scratch_subdir>  (676) 
/opt/xchem-fragalysis-2/maxwin/BulkDock/SCRATCH/511015/C11855-P40

>  <fragmenstein_runtime>  (676) 
13.44693660736084

>  <fragmenstein_outcome>  (676) 
too moved

>  <fragmenstein_mode>  (676) 
expansion

>  <fragmenstein_error>  (676) 


$$$$
C11855-P9
     RDKit          3D

 40 42  0  0  0  0  0  0  0  0999 V2000
   -6.2835  -17.7040   21.1995 O   0  0  0  0  0  0  0  0  0  0  0  0
   -7.4066  -17.2757   21.4508 C   0  0  0  0  0  0  0  0  0  0  0  0
   -8.4615  -17.7251   20.7179 O   0  0  0  0  0  0  0  0  0  0  0  0
   -8.8048  -19.0426   21.1277 C   0  0  0  0  0  0  0  0  0  0  0  0
   -8.5735  -20.0614   20.0237 C   0  0  0  0  0  0  0  0  0  0  0  0
   -7.2648  -20.6976   19.8824 N   0  0  0  0  0  0  0  0  0  0  0  0
   -6.3870  -20.0711   18.9023 C   0  0  0  0  0  0  0  0  0  0  0  0
   -5.2457  -21.0227   18.5536 C   0  0  0  0  0  0  0  0  0  0  0  0
   -4.4562  -21.4177   19.7863 C   0  0  0  0  0  0  0  0  0  0  0  0
   -5.3806  -21.9454   20.8768 C   0  0  0  0  0  0  0  0  0  0  0  0
   -6.5754  -21.0122   21.1269 C   0  0  0  0  0  0  0  0  0  0  0  0
   -7.7864  -16.3039   22.6482 C   0  0  0  0  0  0  0  0  0  0  0  0
   -7.3112  -16.5971   23.8180 C   0  0  0  0  0  0  0  0  0  0  0  0
   -7.1401  -14.9396   24.5935 N   0  0  0  0  0  0  0  0  0  0  0  0
   -5.9516  -13.7175   23.8316 C   0  0  0  0  0  0  0  0  0  0  0  0
   -5.9707  -12.1752   24.6620 C   0  0  0  0  0  0  0  0  0  0  0  0
   -6.3934  -10.9540   24.1299 C   0  0  0  0  0  0  0  0  0  0  0  0
   -6.7176   -9.8432   24.7943 F   0  0  0  0  0  0  0  0  0  0  0  0
   -6.8398  -11.2130   22.9532 C   0  0  0  0  0  0  0  0  0  0  0  0
   -6.9399  -12.6888   22.8559 C   0  0  0  0  0  0  0  0  0  0  0  0
   -7.0735  -14.5119   23.6518 C   0  0  0  0  0  0  0  0  0  0  0  0
   -8.3425  -19.3309   22.0789 H   0  0  0  0  0  0  0  0  0  0  0  0
   -9.8825  -19.0446   21.3264 H   0  0  0  0  0  0  0  0  0  0  0  0
   -8.9028  -19.6508   19.0631 H   0  0  0  0  0  0  0  0  0  0  0  0
   -9.2623  -20.8702   20.2784 H   0  0  0  0  0  0  0  0  0  0  0  0
   -6.9413  -19.8631   17.9919 H   0  0  0  0  0  0  0  0  0  0  0  0
   -5.9872  -19.1172   19.2568 H   0  0  0  0  0  0  0  0  0  0  0  0
   -5.6451  -21.9375   18.1161 H   0  0  0  0  0  0  0  0  0  0  0  0
   -4.5830  -20.5601   17.8145 H   0  0  0  0  0  0  0  0  0  0  0  0
   -3.9076  -20.5452   20.1550 H   0  0  0  0  0  0  0  0  0  0  0  0
   -3.7088  -22.1769   19.5302 H   0  0  0  0  0  0  0  0  0  0  0  0
   -5.7279  -22.9464   20.5942 H   0  0  0  0  0  0  0  0  0  0  0  0
   -4.8146  -22.0850   21.8042 H   0  0  0  0  0  0  0  0  0  0  0  0
   -7.2497  -21.5092   21.8354 H   0  0  0  0  0  0  0  0  0  0  0  0
   -6.2849  -20.0748   21.5696 H   0  0  0  0  0  0  0  0  0  0  0  0
   -6.6201  -17.4534   23.9132 H   0  0  0  0  0  0  0  0  0  0  0  0
   -7.4601  -14.8120   25.5658 H   0  0  0  0  0  0  0  0  0  0  0  0
   -6.4877  -12.2414   25.6600 H   0  0  0  0  0  0  0  0  0  0  0  0
   -7.0318  -10.5052   22.1672 H   0  0  0  0  0  0  0  0  0  0  0  0
   -6.6494  -12.5063   21.8050 H   0  0  0  0  0  0  0  0  0  0  0  0
  1  2  2  0
  2  3  1  0
  3  4  1  0
  4  5  1  0
  5  6  1  0
  6  7  1  0
  7  8  1  0
  8  9  1  0
  9 10  1  0
 10 11  1  0
  2 12  1  0
 12 13  2  0
 13 14  1  0
 14 15  1  0
 15 16  2  0
 16 17  1  0
 17 18  1  0
 17 19  2  0
 19 20  1  0
 20 21  2  0
 11  6  1  0
 21 12  1  0
 21 15  1  0
  4 22  1  0
  4 23  1  0
  5 24  1  0
  5 25  1  0
  7 26  1  0
  7 27  1  0
  8 28  1  0
  8 29  1  0
  9 30  1  0
  9 31  1  0
 10 32  1  0
 10 33  1  0
 11 34  1  0
 11 35  1  0
 13 36  1  0
 14 37  1  0
 16 38  1  0
 19 39  1  0
 20 40  1  0
M  END
>  <Energy>  (677) 
933.77821598688774

>  <compound_id>  (677) 
11855

>  <target_id>  (677) 
1

>  <reference_id>  (677) 
9

>  <inspiration_ids>  (677) 
[40, 9]

>  <energy_score>  (677) 
860.680345810849

>  <distance_score>  (677) 
11.230130274169577

>  <path>  (677) 
/opt/xchem-fragalysis-2/maxwin/BulkDock/SCRATCH/511015/C11855-P9/C11855-P9.minimised.mol

>  <scratch_subdir>  (677) 
/opt/xchem-fragalysis-2/maxwin/BulkDock/SCRATCH/511015/C11855-P9

>  <fragmenstein_runtime>  (677) 
16.29198980331421

>  <fragmenstein_outcome>  (677) 
too moved

>  <fragmenstein_mode>  (677) 
expansion

>  <fragmenstein_error>  (677) 


$$$$
C11856-P40
     RDKit          3D

 41 43  0  0  0  0  0  0  0  0999 V2000
    1.3418  -20.9131   20.6671 O   0  0  0  0  0  0  0  0  0  0  0  0
    0.1931  -21.0510   20.8950 C   0  0  0  0  0  0  0  0  0  0  0  0
   -0.7725  -20.1388   21.5495 N   0  0  0  0  0  0  0  0  0  0  0  0
   -0.6090  -18.6734   22.0509 C   0  0  0  0  0  0  0  0  0  0  0  0
   -0.7597  -16.5382   21.6358 C   0  0  0  0  0  0  0  0  0  0  0  0
   -1.1340  -14.9212   22.7557 N   0  0  0  0  0  0  0  0  0  0  0  0
   -0.2822  -13.9061   22.7905 C   0  0  0  0  0  0  0  0  0  0  0  0
   -0.3138  -12.9410   23.6687 C   0  0  0  0  0  0  0  0  0  0  0  0
   -1.5611  -13.4177   24.6985 C   0  0  0  0  0  0  0  0  0  0  0  0
   -2.5984  -12.6970   25.2361 C   0  0  0  0  0  0  0  0  0  0  0  0
   -2.5364  -13.1238   26.4365 C   0  0  0  0  0  0  0  0  0  0  0  0
   -2.8307  -11.9284   27.6233 Cl  0  0  0  0  0  0  0  0  0  0  0  0
   -2.3102  -14.5103   26.5332 C   0  0  0  0  0  0  0  0  0  0  0  0
   -2.7538  -15.4820   25.2406 C   0  0  0  0  0  0  0  0  0  0  0  0
   -2.1883  -14.6978   24.0390 C   0  0  0  0  0  0  0  0  0  0  0  0
   -0.7345  -22.1458   20.5209 N   0  0  0  0  0  0  0  0  0  0  0  0
   -0.5190  -23.3529   19.6436 C   0  0  0  0  0  0  0  0  0  0  0  0
   -1.8367  -23.9987   19.1709 C   0  0  0  0  0  0  0  0  0  0  0  0
   -2.8213  -24.0423   20.3188 C   0  0  0  0  0  0  0  0  0  0  0  0
   -2.0345  -24.1069   21.6203 C   0  0  0  0  0  0  0  0  0  0  0  0
   -0.7580  -23.2080   21.6039 C   0  0  0  0  0  0  0  0  0  0  0  0
   -1.6466  -20.6102   21.6549 H   0  0  0  0  0  0  0  0  0  0  0  0
    0.2628  -18.9064   21.3397 H   0  0  0  0  0  0  0  0  0  0  0  0
   -0.0448  -19.0876   22.8967 H   0  0  0  0  0  0  0  0  0  0  0  0
    0.1621  -16.1489   21.1514 H   0  0  0  0  0  0  0  0  0  0  0  0
   -1.5569  -16.2657   20.8868 H   0  0  0  0  0  0  0  0  0  0  0  0
    0.1240  -14.1351   21.9014 H   0  0  0  0  0  0  0  0  0  0  0  0
    0.2525  -12.0172   23.6341 H   0  0  0  0  0  0  0  0  0  0  0  0
   -3.1852  -12.0121   24.6970 H   0  0  0  0  0  0  0  0  0  0  0  0
   -2.1218  -15.0075   27.4903 H   0  0  0  0  0  0  0  0  0  0  0  0
   -2.5910  -16.5462   25.4309 H   0  0  0  0  0  0  0  0  0  0  0  0
   -0.0853  -22.9028   18.7362 H   0  0  0  0  0  0  0  0  0  0  0  0
    0.2859  -24.0633   19.8997 H   0  0  0  0  0  0  0  0  0  0  0  0
   -1.6258  -25.0067   18.7965 H   0  0  0  0  0  0  0  0  0  0  0  0
   -2.2695  -23.4314   18.3385 H   0  0  0  0  0  0  0  0  0  0  0  0
   -3.5151  -24.8838   20.2242 H   0  0  0  0  0  0  0  0  0  0  0  0
   -3.4264  -23.1269   20.3132 H   0  0  0  0  0  0  0  0  0  0  0  0
   -2.6856  -23.8154   22.4532 H   0  0  0  0  0  0  0  0  0  0  0  0
   -1.7230  -25.1397   21.8195 H   0  0  0  0  0  0  0  0  0  0  0  0
    0.1933  -23.7450   21.7636 H   0  0  0  0  0  0  0  0  0  0  0  0
   -0.8178  -22.6383   22.5453 H   0  0  0  0  0  0  0  0  0  0  0  0
  1  2  2  0
  2  3  1  0
  3  4  1  0
  4  5  1  0
  5  6  1  0
  6  7  1  0
  7  8  2  0
  8  9  1  0
  9 10  2  0
 10 11  1  0
 11 12  1  0
 11 13  2  0
 13 14  1  0
 14 15  2  0
  2 16  1  0
 16 17  1  0
 17 18  1  0
 18 19  1  0
 19 20  1  0
 20 21  1  0
 15  6  1  0
 21 16  1  0
 15  9  1  0
  3 22  1  0
  4 23  1  0
  4 24  1  0
  5 25  1  0
  5 26  1  0
  7 27  1  0
  8 28  1  0
 10 29  1  0
 13 30  1  0
 14 31  1  0
 17 32  1  0
 17 33  1  0
 18 34  1  0
 18 35  1  0
 19 36  1  0
 19 37  1  0
 20 38  1  0
 20 39  1  0
 21 40  1  0
 21 41  1  0
M  END
>  <Energy>  (678) 
537.63237132302754

>  <compound_id>  (678) 
11856

>  <target_id>  (678) 
1

>  <reference_id>  (678) 
40

>  <inspiration_ids>  (678) 
[40, 9]

>  <energy_score>  (678) 
569.168768918091

>  <distance_score>  (678) 
12.126768568270718

>  <path>  (678) 
/opt/xchem-fragalysis-2/maxwin/BulkDock/SCRATCH/511015/C11856-P40/C11856-P40.minimised.mol

>  <scratch_subdir>  (678) 
/opt/xchem-fragalysis-2/maxwin/BulkDock/SCRATCH/511015/C11856-P40

>  <fragmenstein_runtime>  (678) 
17.264114141464233

>  <fragmenstein_outcome>  (678) 
too moved

>  <fragmenstein_mode>  (678) 
expansion

>  <fragmenstein_error>  (678) 


$$$$
C11856-P9
     RDKit          3D

 41 43  0  0  0  0  0  0  0  0999 V2000
   -5.2989  -18.3552   19.4319 O   0  0  0  0  0  0  0  0  0  0  0  0
   -6.0085  -18.1276   20.3402 C   0  0  0  0  0  0  0  0  0  0  0  0
   -5.7988  -17.2960   21.5236 N   0  0  0  0  0  0  0  0  0  0  0  0
   -4.4687  -16.2327   21.9701 C   0  0  0  0  0  0  0  0  0  0  0  0
   -4.3606  -14.8971   23.5747 C   0  0  0  0  0  0  0  0  0  0  0  0
   -4.4336  -13.0374   24.2126 N   0  0  0  0  0  0  0  0  0  0  0  0
   -5.3599  -12.1149   24.3545 C   0  0  0  0  0  0  0  0  0  0  0  0
   -3.8333  -11.6989   24.3544 C   0  0  0  0  0  0  0  0  0  0  0  0
   -2.5537  -12.0490   25.5834 C   0  0  0  0  0  0  0  0  0  0  0  0
   -2.2207  -11.5094   27.1266 C   0  0  0  0  0  0  0  0  0  0  0  0
   -2.5059  -11.5925   28.6841 C   0  0  0  0  0  0  0  0  0  0  0  0
   -1.4780  -10.4711   30.0724 Cl  0  0  0  0  0  0  0  0  0  0  0  0
   -3.7046  -12.0233   28.8065 C   0  0  0  0  0  0  0  0  0  0  0  0
   -4.2555  -12.1531   27.3765 C   0  0  0  0  0  0  0  0  0  0  0  0
   -3.5858  -12.5984   25.8740 C   0  0  0  0  0  0  0  0  0  0  0  0
   -7.4044  -18.5095   20.5709 N   0  0  0  0  0  0  0  0  0  0  0  0
   -8.3711  -19.1971   19.6849 C   0  0  0  0  0  0  0  0  0  0  0  0
   -9.7784  -18.8683   20.1675 C   0  0  0  0  0  0  0  0  0  0  0  0
  -10.0148  -19.5354   21.4961 C   0  0  0  0  0  0  0  0  0  0  0  0
   -8.8263  -20.4135   21.8184 C   0  0  0  0  0  0  0  0  0  0  0  0
   -7.4703  -19.8346   21.3113 C   0  0  0  0  0  0  0  0  0  0  0  0
   -6.6583  -17.2604   22.0632 H   0  0  0  0  0  0  0  0  0  0  0  0
   -3.9238  -16.9684   22.3229 H   0  0  0  0  0  0  0  0  0  0  0  0
   -3.7633  -16.2030   21.0955 H   0  0  0  0  0  0  0  0  0  0  0  0
   -5.2327  -15.2036   24.0471 H   0  0  0  0  0  0  0  0  0  0  0  0
   -3.4338  -15.1657   24.1008 H   0  0  0  0  0  0  0  0  0  0  0  0
   -6.2149  -11.8419   23.7461 H   0  0  0  0  0  0  0  0  0  0  0  0
   -3.5173  -10.8485   23.7442 H   0  0  0  0  0  0  0  0  0  0  0  0
   -1.5692  -10.6677   27.1717 H   0  0  0  0  0  0  0  0  0  0  0  0
   -4.3478  -12.0709   29.6669 H   0  0  0  0  0  0  0  0  0  0  0  0
   -5.3814  -11.9783   27.3177 H   0  0  0  0  0  0  0  0  0  0  0  0
   -8.2588  -18.6351   18.7447 H   0  0  0  0  0  0  0  0  0  0  0  0
   -8.1717  -20.2190   19.3254 H   0  0  0  0  0  0  0  0  0  0  0  0
  -10.5478  -19.1229   19.4566 H   0  0  0  0  0  0  0  0  0  0  0  0
   -9.8909  -17.7867   20.2784 H   0  0  0  0  0  0  0  0  0  0  0  0
  -10.9423  -20.1177   21.4965 H   0  0  0  0  0  0  0  0  0  0  0  0
  -10.1258  -18.7695   22.2730 H   0  0  0  0  0  0  0  0  0  0  0  0
   -8.7898  -20.5839   22.8957 H   0  0  0  0  0  0  0  0  0  0  0  0
   -8.9838  -21.4003   21.3792 H   0  0  0  0  0  0  0  0  0  0  0  0
   -6.8163  -20.5931   20.8510 H   0  0  0  0  0  0  0  0  0  0  0  0
   -6.9469  -19.6066   22.2454 H   0  0  0  0  0  0  0  0  0  0  0  0
  1  2  2  0
  2  3  1  0
  3  4  1  0
  4  5  1  0
  5  6  1  0
  6  7  1  0
  7  8  2  0
  8  9  1  0
  9 10  2  0
 10 11  1  0
 11 12  1  0
 11 13  2  0
 13 14  1  0
 14 15  2  0
  2 16  1  0
 16 17  1  0
 17 18  1  0
 18 19  1  0
 19 20  1  0
 20 21  1  0
 15  6  1  0
 21 16  1  0
 15  9  1  0
  3 22  1  0
  4 23  1  0
  4 24  1  0
  5 25  1  0
  5 26  1  0
  7 27  1  0
  8 28  1  0
 10 29  1  0
 13 30  1  0
 14 31  1  0
 17 32  1  0
 17 33  1  0
 18 34  1  0
 18 35  1  0
 19 36  1  0
 19 37  1  0
 20 38  1  0
 20 39  1  0
 21 40  1  0
 21 41  1  0
M  END
>  <Energy>  (679) 
732.73298544557383

>  <compound_id>  (679) 
11856

>  <target_id>  (679) 
1

>  <reference_id>  (679) 
9

>  <inspiration_ids>  (679) 
[40, 9]

>  <energy_score>  (679) 
764.2693830406374

>  <distance_score>  (679) 
10.19955470616068

>  <path>  (679) 
/opt/xchem-fragalysis-2/maxwin/BulkDock/SCRATCH/511015/C11856-P9/C11856-P9.minimised.mol

>  <scratch_subdir>  (679) 
/opt/xchem-fragalysis-2/maxwin/BulkDock/SCRATCH/511015/C11856-P9

>  <fragmenstein_runtime>  (679) 
17.604300260543823

>  <fragmenstein_outcome>  (679) 
too moved

>  <fragmenstein_mode>  (679) 
expansion

>  <fragmenstein_error>  (679) 


$$$$
C11857-P40
     RDKit          3D

 47 49  0  0  0  0  0  0  0  0999 V2000
   -7.1920  -19.2163   20.8980 C   0  0  0  0  0  0  0  0  0  0  0  0
   -7.9042  -19.9044   22.2458 C   0  0  0  0  0  0  0  0  0  0  0  0
   -9.5477  -21.1765   21.8130 C   0  0  0  0  0  0  0  0  0  0  0  0
  -11.2554  -21.4193   20.8753 N   0  0  0  0  0  0  0  0  0  0  0  0
  -11.4701  -22.7953   21.3074 C   0  0  0  0  0  0  0  0  0  0  0  0
  -12.0296  -24.3002   20.4953 C   0  0  0  0  0  0  0  0  0  0  0  0
  -12.9483  -24.8293   19.3469 C   0  0  0  0  0  0  0  0  0  0  0  0
  -13.1314  -23.6242   18.3821 C   0  0  0  0  0  0  0  0  0  0  0  0
  -12.3699  -22.0203   19.4685 C   0  0  0  0  0  0  0  0  0  0  0  0
   -7.2160  -18.4611   23.1027 N   0  0  0  0  0  0  0  0  0  0  0  0
   -7.3872  -16.8011   22.8330 C   0  0  0  0  0  0  0  0  0  0  0  0
   -7.9783  -16.4638   21.8900 O   0  0  0  0  0  0  0  0  0  0  0  0
   -6.6342  -15.0442   23.8927 C   0  0  0  0  0  0  0  0  0  0  0  0
   -5.8904  -13.1196   23.6464 C   0  0  0  0  0  0  0  0  0  0  0  0
   -4.8600  -11.8844   24.2663 C   0  0  0  0  0  0  0  0  0  0  0  0
   -5.5028  -10.3630   24.2570 C   0  0  0  0  0  0  0  0  0  0  0  0
   -5.4535   -9.1299   24.9928 C   0  0  0  0  0  0  0  0  0  0  0  0
   -6.5786   -8.4750   25.5324 C   0  0  0  0  0  0  0  0  0  0  0  0
   -6.5274   -7.5545   27.0012 Cl  0  0  0  0  0  0  0  0  0  0  0  0
   -7.7934   -8.7356   25.0103 C   0  0  0  0  0  0  0  0  0  0  0  0
   -7.8540   -9.7581   24.0888 C   0  0  0  0  0  0  0  0  0  0  0  0
   -6.7632  -10.6859   23.8786 C   0  0  0  0  0  0  0  0  0  0  0  0
   -6.3599  -11.8510   24.6393 N   0  0  0  0  0  0  0  0  0  0  0  0
   -6.1259  -19.4726   20.7568 H   0  0  0  0  0  0  0  0  0  0  0  0
   -7.0231  -18.1533   20.9373 H   0  0  0  0  0  0  0  0  0  0  0  0
   -7.6866  -19.4747   19.9956 H   0  0  0  0  0  0  0  0  0  0  0  0
   -8.5459  -19.4103   22.9427 H   0  0  0  0  0  0  0  0  0  0  0  0
  -10.1771  -20.8401   22.6756 H   0  0  0  0  0  0  0  0  0  0  0  0
   -9.3111  -22.0749   22.3560 H   0  0  0  0  0  0  0  0  0  0  0  0
  -11.6038  -22.7075   22.3853 H   0  0  0  0  0  0  0  0  0  0  0  0
  -10.5063  -22.8591   20.8548 H   0  0  0  0  0  0  0  0  0  0  0  0
  -12.4316  -25.0013   21.1341 H   0  0  0  0  0  0  0  0  0  0  0  0
  -11.0592  -24.7271   20.3869 H   0  0  0  0  0  0  0  0  0  0  0  0
  -12.5181  -25.7228   18.8476 H   0  0  0  0  0  0  0  0  0  0  0  0
  -13.8559  -25.3395   19.6266 H   0  0  0  0  0  0  0  0  0  0  0  0
  -14.2187  -23.7942   18.1633 H   0  0  0  0  0  0  0  0  0  0  0  0
  -13.0432  -23.8039   17.3093 H   0  0  0  0  0  0  0  0  0  0  0  0
  -12.8625  -22.3364   20.3163 H   0  0  0  0  0  0  0  0  0  0  0  0
  -12.9012  -21.0955   19.1697 H   0  0  0  0  0  0  0  0  0  0  0  0
   -6.6204  -18.5798   23.8897 H   0  0  0  0  0  0  0  0  0  0  0  0
   -7.2489  -14.8955   24.8237 H   0  0  0  0  0  0  0  0  0  0  0  0
   -5.5317  -15.3119   23.9320 H   0  0  0  0  0  0  0  0  0  0  0  0
   -3.8336  -12.0177   24.5932 H   0  0  0  0  0  0  0  0  0  0  0  0
   -4.5715   -8.8004   25.4503 H   0  0  0  0  0  0  0  0  0  0  0  0
   -8.6935   -8.2328   25.3440 H   0  0  0  0  0  0  0  0  0  0  0  0
   -8.8686  -10.0147   23.7877 H   0  0  0  0  0  0  0  0  0  0  0  0
   -6.7148  -12.0563   25.5722 H   0  0  0  0  0  0  0  0  0  0  0  0
  1  2  1  0
  2  3  1  0
  3  4  1  0
  4  5  1  0
  5  6  1  0
  6  7  1  0
  7  8  1  0
  8  9  1  0
  2 10  1  0
 10 11  1  0
 11 12  2  0
 11 13  1  0
 13 14  1  0
 14 15  2  0
 15 16  1  0
 16 17  2  0
 17 18  1  0
 18 19  1  0
 18 20  2  0
 20 21  1  0
 21 22  2  0
 22 23  1  0
  9  4  1  0
 23 14  1  0
 22 16  1  0
  1 24  1  0
  1 25  1  0
  1 26  1  0
  2 27  1  0
  3 28  1  0
  3 29  1  0
  5 30  1  0
  5 31  1  0
  6 32  1  0
  6 33  1  0
  7 34  1  0
  7 35  1  0
  8 36  1  0
  8 37  1  0
  9 38  1  0
  9 39  1  0
 10 40  1  0
 13 41  1  0
 13 42  1  0
 15 43  1  0
 17 44  1  0
 20 45  1  0
 21 46  1  0
 23 47  1  0
M  END
>  <Energy>  (680) 
1263.9928863833031

>  <compound_id>  (680) 
11857

>  <target_id>  (680) 
1

>  <reference_id>  (680) 
40

>  <inspiration_ids>  (680) 
[40, 9]

>  <energy_score>  (680) 
1172.4997370878204

>  <distance_score>  (680) 
9.025476839199062

>  <path>  (680) 
/opt/xchem-fragalysis-2/maxwin/BulkDock/SCRATCH/511015/C11857-P40/C11857-P40.minimised.mol

>  <scratch_subdir>  (680) 
/opt/xchem-fragalysis-2/maxwin/BulkDock/SCRATCH/511015/C11857-P40

>  <fragmenstein_runtime>  (680) 
13.806045532226562

>  <fragmenstein_outcome>  (680) 
too moved

>  <fragmenstein_mode>  (680) 
expansion

>  <fragmenstein_error>  (680) 


$$$$
C11857-P9
     RDKit          3D

 47 49  0  0  0  0  0  0  0  0999 V2000
   -9.1890  -20.9021   20.0795 C   0  0  0  0  0  0  0  0  0  0  0  0
   -9.6166  -21.3314   21.4494 C   0  0  0  0  0  0  0  0  0  0  0  0
  -11.4685  -22.0968   20.9536 C   0  0  0  0  0  0  0  0  0  0  0  0
  -12.6199  -23.3919   20.0096 N   0  0  0  0  0  0  0  0  0  0  0  0
  -12.5317  -24.8219   20.1191 C   0  0  0  0  0  0  0  0  0  0  0  0
  -13.3627  -26.0718   19.2358 C   0  0  0  0  0  0  0  0  0  0  0  0
  -12.9594  -26.2650   17.8182 C   0  0  0  0  0  0  0  0  0  0  0  0
  -13.5042  -25.0372   17.2010 C   0  0  0  0  0  0  0  0  0  0  0  0
  -13.4329  -23.7405   18.2389 C   0  0  0  0  0  0  0  0  0  0  0  0
   -8.3299  -20.1730   22.5209 N   0  0  0  0  0  0  0  0  0  0  0  0
   -7.9683  -18.3600   22.4765 C   0  0  0  0  0  0  0  0  0  0  0  0
   -8.4843  -17.7462   21.6568 O   0  0  0  0  0  0  0  0  0  0  0  0
   -7.0046  -17.1442   23.6472 C   0  0  0  0  0  0  0  0  0  0  0  0
   -6.9921  -15.0668   24.2095 C   0  0  0  0  0  0  0  0  0  0  0  0
   -6.0419  -13.6141   23.7452 C   0  0  0  0  0  0  0  0  0  0  0  0
   -6.2107  -12.2770   24.9219 C   0  0  0  0  0  0  0  0  0  0  0  0
   -6.1075  -10.8685   24.8736 C   0  0  0  0  0  0  0  0  0  0  0  0
   -6.7257  -10.1474   25.9156 C   0  0  0  0  0  0  0  0  0  0  0  0
   -6.6976   -8.4120   25.8865 Cl  0  0  0  0  0  0  0  0  0  0  0  0
   -7.3278  -10.7678   27.0307 C   0  0  0  0  0  0  0  0  0  0  0  0
   -7.3632  -12.1613   27.2086 C   0  0  0  0  0  0  0  0  0  0  0  0
   -6.9104  -12.9495   26.1229 C   0  0  0  0  0  0  0  0  0  0  0  0
   -7.4744  -14.4799   25.6491 N   0  0  0  0  0  0  0  0  0  0  0  0
   -8.3699  -20.1780   20.2143 H   0  0  0  0  0  0  0  0  0  0  0  0
   -9.2293  -21.4476   19.1781 H   0  0  0  0  0  0  0  0  0  0  0  0
   -9.7401  -20.1634   19.5964 H   0  0  0  0  0  0  0  0  0  0  0  0
   -9.3795  -22.1013   22.1290 H   0  0  0  0  0  0  0  0  0  0  0  0
  -11.8659  -22.2824   21.9592 H   0  0  0  0  0  0  0  0  0  0  0  0
  -11.9664  -21.1818   20.6184 H   0  0  0  0  0  0  0  0  0  0  0  0
  -11.4820  -24.9165   20.1661 H   0  0  0  0  0  0  0  0  0  0  0  0
  -12.7924  -25.0976   21.0712 H   0  0  0  0  0  0  0  0  0  0  0  0
  -14.4333  -25.9475   19.3106 H   0  0  0  0  0  0  0  0  0  0  0  0
  -13.3054  -27.0850   19.6407 H   0  0  0  0  0  0  0  0  0  0  0  0
  -11.8788  -26.3797   17.7021 H   0  0  0  0  0  0  0  0  0  0  0  0
  -13.4251  -27.1561   17.3824 H   0  0  0  0  0  0  0  0  0  0  0  0
  -14.5716  -25.2106   16.9747 H   0  0  0  0  0  0  0  0  0  0  0  0
  -13.0917  -24.9576   16.2063 H   0  0  0  0  0  0  0  0  0  0  0  0
  -14.4925  -23.9733   18.3860 H   0  0  0  0  0  0  0  0  0  0  0  0
  -13.4320  -22.8226   17.7234 H   0  0  0  0  0  0  0  0  0  0  0  0
   -7.7587  -20.5888   23.2085 H   0  0  0  0  0  0  0  0  0  0  0  0
   -7.7187  -16.6589   22.9843 H   0  0  0  0  0  0  0  0  0  0  0  0
   -6.1136  -17.5627   23.1785 H   0  0  0  0  0  0  0  0  0  0  0  0
   -5.0643  -13.9641   23.5375 H   0  0  0  0  0  0  0  0  0  0  0  0
   -5.6783  -10.3712   24.0114 H   0  0  0  0  0  0  0  0  0  0  0  0
   -7.7479  -10.1411   27.8158 H   0  0  0  0  0  0  0  0  0  0  0  0
   -7.8944  -12.5999   28.0447 H   0  0  0  0  0  0  0  0  0  0  0  0
   -8.2324  -14.9192   26.1520 H   0  0  0  0  0  0  0  0  0  0  0  0
  1  2  1  0
  2  3  1  0
  3  4  1  0
  4  5  1  0
  5  6  1  0
  6  7  1  0
  7  8  1  0
  8  9  1  0
  2 10  1  0
 10 11  1  0
 11 12  2  0
 11 13  1  0
 13 14  1  0
 14 15  2  0
 15 16  1  0
 16 17  2  0
 17 18  1  0
 18 19  1  0
 18 20  2  0
 20 21  1  0
 21 22  2  0
 22 23  1  0
  9  4  1  0
 23 14  1  0
 22 16  1  0
  1 24  1  0
  1 25  1  0
  1 26  1  0
  2 27  1  0
  3 28  1  0
  3 29  1  0
  5 30  1  0
  5 31  1  0
  6 32  1  0
  6 33  1  0
  7 34  1  0
  7 35  1  0
  8 36  1  0
  8 37  1  0
  9 38  1  0
  9 39  1  0
 10 40  1  0
 13 41  1  0
 13 42  1  0
 15 43  1  0
 17 44  1  0
 20 45  1  0
 21 46  1  0
 23 47  1  0
M  END
>  <Energy>  (681) 
1061.7763037177626

>  <compound_id>  (681) 
11857

>  <target_id>  (681) 
1

>  <reference_id>  (681) 
9

>  <inspiration_ids>  (681) 
[40, 9]

>  <energy_score>  (681) 
970.2831544222863

>  <distance_score>  (681) 
8.808817611192927

>  <path>  (681) 
/opt/xchem-fragalysis-2/maxwin/BulkDock/SCRATCH/511015/C11857-P9/C11857-P9.minimised.mol

>  <scratch_subdir>  (681) 
/opt/xchem-fragalysis-2/maxwin/BulkDock/SCRATCH/511015/C11857-P9

>  <fragmenstein_runtime>  (681) 
19.908636808395386

>  <fragmenstein_outcome>  (681) 
too moved

>  <fragmenstein_mode>  (681) 
expansion

>  <fragmenstein_error>  (681) 


$$$$
C11858-P40
     RDKit          3D

 57 60  0  0  0  0  0  0  0  0999 V2000
   -7.8006  -19.5993   22.7749 C   0  0  0  0  0  0  0  0  0  0  0  0
   -6.8284  -18.9499   23.1726 N   0  0  0  0  0  0  0  0  0  0  0  0
   -8.2132  -20.3081   22.2641 C   0  0  0  0  0  0  0  0  0  0  0  0
  -10.0599  -21.2785   22.3083 C   0  0  0  0  0  0  0  0  0  0  0  0
  -10.7580  -20.6743   23.3553 C   0  0  0  0  0  0  0  0  0  0  0  0
  -11.8507  -21.1144   24.2114 C   0  0  0  0  0  0  0  0  0  0  0  0
  -12.8001  -21.9476   23.7930 C   0  0  0  0  0  0  0  0  0  0  0  0
  -12.6168  -22.3502   22.5051 C   0  0  0  0  0  0  0  0  0  0  0  0
  -11.4492  -22.2633   21.6321 C   0  0  0  0  0  0  0  0  0  0  0  0
  -11.9714  -23.6522   20.6520 N   0  0  0  0  0  0  0  0  0  0  0  0
  -13.2382  -24.5781   19.8107 C   0  0  0  0  0  0  0  0  0  0  0  0
  -13.8225  -25.2689   18.4943 C   0  0  0  0  0  0  0  0  0  0  0  0
  -12.8251  -26.0768   17.8032 C   0  0  0  0  0  0  0  0  0  0  0  0
  -11.6354  -26.0995   18.7691 C   0  0  0  0  0  0  0  0  0  0  0  0
  -11.1487  -24.7949   20.2823 C   0  0  0  0  0  0  0  0  0  0  0  0
   -6.6700  -17.1325   23.3401 C   0  0  0  0  0  0  0  0  0  0  0  0
   -7.5958  -16.6218   22.9131 O   0  0  0  0  0  0  0  0  0  0  0  0
   -5.2091  -15.5681   24.0049 C   0  0  0  0  0  0  0  0  0  0  0  0
   -3.3268  -15.5383   24.9632 C   0  0  0  0  0  0  0  0  0  0  0  0
   -2.5865  -13.9612   26.1197 C   0  0  0  0  0  0  0  0  0  0  0  0
   -2.6276  -12.8127   25.2877 C   0  0  0  0  0  0  0  0  0  0  0  0
   -1.9237  -12.6205   26.3464 N   0  0  0  0  0  0  0  0  0  0  0  0
   -2.1341  -11.3018   26.9632 C   0  0  0  0  0  0  0  0  0  0  0  0
   -1.0885  -10.4597   28.2292 C   0  0  0  0  0  0  0  0  0  0  0  0
   -0.8509  -10.2803   29.4890 C   0  0  0  0  0  0  0  0  0  0  0  0
   -1.7198  -11.1674   29.8024 C   0  0  0  0  0  0  0  0  0  0  0  0
   -2.8149  -12.1291   28.9633 C   0  0  0  0  0  0  0  0  0  0  0  0
   -2.9916  -12.3679   27.2229 C   0  0  0  0  0  0  0  0  0  0  0  0
   -7.1287  -19.1293   21.7161 H   0  0  0  0  0  0  0  0  0  0  0  0
   -8.2158  -18.5283   22.3237 H   0  0  0  0  0  0  0  0  0  0  0  0
   -8.5735  -19.0957   23.4523 H   0  0  0  0  0  0  0  0  0  0  0  0
   -7.9221  -21.3180   22.8867 H   0  0  0  0  0  0  0  0  0  0  0  0
   -8.1261  -20.4071   21.0744 H   0  0  0  0  0  0  0  0  0  0  0  0
  -11.4048  -20.1492   22.6229 H   0  0  0  0  0  0  0  0  0  0  0  0
  -11.9320  -20.8090   25.2422 H   0  0  0  0  0  0  0  0  0  0  0  0
  -13.6452  -22.2358   24.4031 H   0  0  0  0  0  0  0  0  0  0  0  0
  -13.4269  -22.9667   22.2286 H   0  0  0  0  0  0  0  0  0  0  0  0
  -13.1821  -25.5331   20.2831 H   0  0  0  0  0  0  0  0  0  0  0  0
  -12.8777  -24.0018   19.0188 H   0  0  0  0  0  0  0  0  0  0  0  0
  -14.6028  -25.9915   18.7781 H   0  0  0  0  0  0  0  0  0  0  0  0
  -14.3125  -24.5716   17.7991 H   0  0  0  0  0  0  0  0  0  0  0  0
  -12.5687  -25.6703   16.8168 H   0  0  0  0  0  0  0  0  0  0  0  0
  -13.1955  -27.0904   17.5973 H   0  0  0  0  0  0  0  0  0  0  0  0
  -11.7783  -27.1520   19.0628 H   0  0  0  0  0  0  0  0  0  0  0  0
  -10.8612  -26.2922   18.0200 H   0  0  0  0  0  0  0  0  0  0  0  0
  -10.2046  -24.2756   20.1550 H   0  0  0  0  0  0  0  0  0  0  0  0
  -10.6131  -25.3349   21.0567 H   0  0  0  0  0  0  0  0  0  0  0  0
   -4.5009  -15.3441   23.1191 H   0  0  0  0  0  0  0  0  0  0  0  0
   -5.6322  -14.5819   23.6438 H   0  0  0  0  0  0  0  0  0  0  0  0
   -2.7429  -15.1645   24.1249 H   0  0  0  0  0  0  0  0  0  0  0  0
   -2.8590  -16.4212   25.4269 H   0  0  0  0  0  0  0  0  0  0  0  0
   -3.3514  -12.2549   24.7001 H   0  0  0  0  0  0  0  0  0  0  0  0
   -0.9934  -12.9668   26.1960 H   0  0  0  0  0  0  0  0  0  0  0  0
   -0.7463   -9.3957   28.1897 H   0  0  0  0  0  0  0  0  0  0  0  0
   -0.3519   -9.5177   30.0436 H   0  0  0  0  0  0  0  0  0  0  0  0
   -1.2045  -11.2887   30.7797 H   0  0  0  0  0  0  0  0  0  0  0  0
   -2.6136  -13.1497   29.3251 H   0  0  0  0  0  0  0  0  0  0  0  0
  1  2  1  0
  2  3  1  0
  3  4  1  0
  4  5  2  0
  5  6  1  0
  6  7  2  0
  7  8  1  0
  8  9  2  0
  9 10  1  0
 10 11  1  0
 11 12  1  0
 12 13  1  0
 13 14  1  0
 14 15  1  0
  2 16  1  0
 16 17  2  0
 16 18  1  0
 18 19  1  0
 19 20  1  0
 20 21  2  0
 21 22  1  0
 22 23  1  0
 23 24  2  0
 24 25  1  0
 25 26  2  0
 26 27  1  0
 27 28  2  0
  9  4  1  0
 15 10  1  0
 28 20  1  0
 28 23  1  0
  1 29  1  0
  1 30  1  0
  1 31  1  0
  3 32  1  0
  3 33  1  0
  5 34  1  0
  6 35  1  0
  7 36  1  0
  8 37  1  0
 11 38  1  0
 11 39  1  0
 12 40  1  0
 12 41  1  0
 13 42  1  0
 13 43  1  0
 14 44  1  0
 14 45  1  0
 15 46  1  0
 15 47  1  0
 18 48  1  0
 18 49  1  0
 19 50  1  0
 19 51  1  0
 21 52  1  0
 22 53  1  0
 24 54  1  0
 25 55  1  0
 26 56  1  0
 27 57  1  0
M  END
>  <Energy>  (682) 
2616.9044917619622

>  <compound_id>  (682) 
11858

>  <target_id>  (682) 
1

>  <reference_id>  (682) 
40

>  <inspiration_ids>  (682) 
[40, 9]

>  <energy_score>  (682) 
2539.498055796467

>  <distance_score>  (682) 
7.000544963459081

>  <path>  (682) 
/opt/xchem-fragalysis-2/maxwin/BulkDock/SCRATCH/511015/C11858-P40/C11858-P40.minimised.mol

>  <scratch_subdir>  (682) 
/opt/xchem-fragalysis-2/maxwin/BulkDock/SCRATCH/511015/C11858-P40

>  <fragmenstein_runtime>  (682) 
24.159762859344482

>  <fragmenstein_outcome>  (682) 
too moved

>  <fragmenstein_mode>  (682) 
expansion

>  <fragmenstein_error>  (682) 


$$$$
C11858-P9
     RDKit          3D

 57 60  0  0  0  0  0  0  0  0999 V2000
   -7.7403  -19.0088   21.7068 C   0  0  0  0  0  0  0  0  0  0  0  0
   -7.2302  -17.8885   21.8792 N   0  0  0  0  0  0  0  0  0  0  0  0
   -7.8988  -19.7503   21.0900 C   0  0  0  0  0  0  0  0  0  0  0  0
   -9.3575  -21.3427   21.2015 C   0  0  0  0  0  0  0  0  0  0  0  0
   -9.5053  -21.3958   22.6124 C   0  0  0  0  0  0  0  0  0  0  0  0
  -10.7666  -21.5144   23.2124 C   0  0  0  0  0  0  0  0  0  0  0  0
  -11.7777  -21.1109   22.4737 C   0  0  0  0  0  0  0  0  0  0  0  0
  -12.0085  -22.0957   21.6270 C   0  0  0  0  0  0  0  0  0  0  0  0
  -10.9668  -22.3180   20.7140 C   0  0  0  0  0  0  0  0  0  0  0  0
  -11.4521  -24.2796   20.4386 N   0  0  0  0  0  0  0  0  0  0  0  0
  -12.9414  -24.3086   19.9363 C   0  0  0  0  0  0  0  0  0  0  0  0
  -13.7498  -24.5247   18.2451 C   0  0  0  0  0  0  0  0  0  0  0  0
  -13.4973  -25.7524   17.3790 C   0  0  0  0  0  0  0  0  0  0  0  0
  -12.0462  -26.0611   17.5503 C   0  0  0  0  0  0  0  0  0  0  0  0
  -11.7691  -25.7782   19.1233 C   0  0  0  0  0  0  0  0  0  0  0  0
   -6.4048  -17.3382   23.4032 C   0  0  0  0  0  0  0  0  0  0  0  0
   -6.2448  -18.0914   24.2243 O   0  0  0  0  0  0  0  0  0  0  0  0
   -5.4662  -15.3409   23.9863 C   0  0  0  0  0  0  0  0  0  0  0  0
   -4.9619  -13.2317   24.1614 C   0  0  0  0  0  0  0  0  0  0  0  0
   -3.5635  -12.5784   25.6719 C   0  0  0  0  0  0  0  0  0  0  0  0
   -2.7221  -11.8079   25.1951 C   0  0  0  0  0  0  0  0  0  0  0  0
   -2.4124  -11.0180   26.2696 N   0  0  0  0  0  0  0  0  0  0  0  0
   -1.9658  -11.1522   27.4502 C   0  0  0  0  0  0  0  0  0  0  0  0
   -0.9115  -10.0554   28.3432 C   0  0  0  0  0  0  0  0  0  0  0  0
   -0.9119   -9.8516   29.6350 C   0  0  0  0  0  0  0  0  0  0  0  0
   -1.7845  -10.8412   29.9486 C   0  0  0  0  0  0  0  0  0  0  0  0
   -2.8531  -11.9654   29.0632 C   0  0  0  0  0  0  0  0  0  0  0  0
   -2.9665  -12.1187   27.4533 C   0  0  0  0  0  0  0  0  0  0  0  0
   -8.4647  -18.3296   22.2730 H   0  0  0  0  0  0  0  0  0  0  0  0
   -7.8483  -19.5047   22.8366 H   0  0  0  0  0  0  0  0  0  0  0  0
   -6.5876  -19.2021   22.0708 H   0  0  0  0  0  0  0  0  0  0  0  0
   -6.8514  -19.8895   20.3999 H   0  0  0  0  0  0  0  0  0  0  0  0
   -8.2148  -19.6449   20.0183 H   0  0  0  0  0  0  0  0  0  0  0  0
   -8.7262  -21.9218   23.1693 H   0  0  0  0  0  0  0  0  0  0  0  0
  -10.9653  -22.3718   23.8485 H   0  0  0  0  0  0  0  0  0  0  0  0
  -11.5814  -20.2183   21.9121 H   0  0  0  0  0  0  0  0  0  0  0  0
  -12.7643  -22.7505   21.9754 H   0  0  0  0  0  0  0  0  0  0  0  0
  -13.3905  -25.1826   20.3738 H   0  0  0  0  0  0  0  0  0  0  0  0
  -13.0410  -23.3951   20.4137 H   0  0  0  0  0  0  0  0  0  0  0  0
  -14.8235  -24.4254   18.1980 H   0  0  0  0  0  0  0  0  0  0  0  0
  -13.4692  -23.6930   17.6308 H   0  0  0  0  0  0  0  0  0  0  0  0
  -13.7513  -25.5705   16.3293 H   0  0  0  0  0  0  0  0  0  0  0  0
  -14.1241  -26.5862   17.7192 H   0  0  0  0  0  0  0  0  0  0  0  0
  -11.9036  -27.1345   17.3560 H   0  0  0  0  0  0  0  0  0  0  0  0
  -11.4272  -25.5714   16.8040 H   0  0  0  0  0  0  0  0  0  0  0  0
  -11.1380  -26.6098   19.2296 H   0  0  0  0  0  0  0  0  0  0  0  0
  -12.7478  -26.2887   19.3375 H   0  0  0  0  0  0  0  0  0  0  0  0
   -4.5454  -15.2616   23.3828 H   0  0  0  0  0  0  0  0  0  0  0  0
   -6.5516  -14.8749   24.0391 H   0  0  0  0  0  0  0  0  0  0  0  0
   -5.7667  -12.6183   24.7282 H   0  0  0  0  0  0  0  0  0  0  0  0
   -5.7633  -12.8040   23.5303 H   0  0  0  0  0  0  0  0  0  0  0  0
   -3.1106  -11.3635   24.3000 H   0  0  0  0  0  0  0  0  0  0  0  0
   -1.9304  -10.2298   25.8912 H   0  0  0  0  0  0  0  0  0  0  0  0
   -0.3678   -9.2693   27.8448 H   0  0  0  0  0  0  0  0  0  0  0  0
   -0.3795   -9.1476   30.2376 H   0  0  0  0  0  0  0  0  0  0  0  0
   -1.6222  -10.7092   31.0286 H   0  0  0  0  0  0  0  0  0  0  0  0
   -3.5459  -12.5364   29.6782 H   0  0  0  0  0  0  0  0  0  0  0  0
  1  2  1  0
  2  3  1  0
  3  4  1  0
  4  5  2  0
  5  6  1  0
  6  7  2  0
  7  8  1  0
  8  9  2  0
  9 10  1  0
 10 11  1  0
 11 12  1  0
 12 13  1  0
 13 14  1  0
 14 15  1  0
  2 16  1  0
 16 17  2  0
 16 18  1  0
 18 19  1  0
 19 20  1  0
 20 21  2  0
 21 22  1  0
 22 23  1  0
 23 24  2  0
 24 25  1  0
 25 26  2  0
 26 27  1  0
 27 28  2  0
  9  4  1  0
 15 10  1  0
 28 20  1  0
 28 23  1  0
  1 29  1  0
  1 30  1  0
  1 31  1  0
  3 32  1  0
  3 33  1  0
  5 34  1  0
  6 35  1  0
  7 36  1  0
  8 37  1  0
 11 38  1  0
 11 39  1  0
 12 40  1  0
 12 41  1  0
 13 42  1  0
 13 43  1  0
 14 44  1  0
 14 45  1  0
 15 46  1  0
 15 47  1  0
 18 48  1  0
 18 49  1  0
 19 50  1  0
 19 51  1  0
 21 52  1  0
 22 53  1  0
 24 54  1  0
 25 55  1  0
 26 56  1  0
 27 57  1  0
M  END
>  <Energy>  (683) 
2742.7791126115658

>  <compound_id>  (683) 
11858

>  <target_id>  (683) 
1

>  <reference_id>  (683) 
9

>  <inspiration_ids>  (683) 
[40, 9]

>  <energy_score>  (683) 
2665.372676646128

>  <distance_score>  (683) 
6.63813738742483

>  <path>  (683) 
/opt/xchem-fragalysis-2/maxwin/BulkDock/SCRATCH/511015/C11858-P9/C11858-P9.minimised.mol

>  <scratch_subdir>  (683) 
/opt/xchem-fragalysis-2/maxwin/BulkDock/SCRATCH/511015/C11858-P9

>  <fragmenstein_runtime>  (683) 
27.529046297073364

>  <fragmenstein_outcome>  (683) 
too moved

>  <fragmenstein_mode>  (683) 
expansion

>  <fragmenstein_error>  (683) 


$$$$
C11859-P40
     RDKit          3D

 46 48  0  0  0  0  0  0  0  0999 V2000
  -10.3552  -20.3110   23.2079 O   0  0  0  0  0  0  0  0  0  0  0  0
   -9.0974  -20.7825   22.3782 C   0  0  0  0  0  0  0  0  0  0  0  0
   -7.8693  -19.0141   22.5503 C   0  0  0  0  0  0  0  0  0  0  0  0
   -6.8886  -17.4080   23.2836 N   0  0  0  0  0  0  0  0  0  0  0  0
   -6.8565  -15.4187   23.8649 C   0  0  0  0  0  0  0  0  0  0  0  0
   -5.4808  -14.2427   24.4522 C   0  0  0  0  0  0  0  0  0  0  0  0
   -5.7152  -13.4048   25.5910 C   0  0  0  0  0  0  0  0  0  0  0  0
   -4.7366  -12.7595   26.3128 C   0  0  0  0  0  0  0  0  0  0  0  0
   -3.4244  -12.8373   25.9158 C   0  0  0  0  0  0  0  0  0  0  0  0
   -3.0671  -13.5902   24.7974 C   0  0  0  0  0  0  0  0  0  0  0  0
   -1.8078  -13.9588   24.2402 C   0  0  0  0  0  0  0  0  0  0  0  0
   -2.0434  -14.7086   23.1271 C   0  0  0  0  0  0  0  0  0  0  0  0
   -3.3895  -14.8842   23.0614 N   0  0  0  0  0  0  0  0  0  0  0  0
   -4.0749  -14.2281   24.0678 C   0  0  0  0  0  0  0  0  0  0  0  0
  -10.4203  -21.7061   21.1147 C   0  0  0  0  0  0  0  0  0  0  0  0
  -11.9966  -22.7200   20.7161 N   0  0  0  0  0  0  0  0  0  0  0  0
  -12.5466  -22.5644   19.0425 C   0  0  0  0  0  0  0  0  0  0  0  0
  -13.5954  -23.8285   17.8526 C   0  0  0  0  0  0  0  0  0  0  0  0
  -13.4607  -25.3081   17.9312 C   0  0  0  0  0  0  0  0  0  0  0  0
  -12.8414  -25.5953   19.2499 C   0  0  0  0  0  0  0  0  0  0  0  0
  -11.8937  -24.4653   20.4220 C   0  0  0  0  0  0  0  0  0  0  0  0
  -10.9120  -21.0793   23.4117 H   0  0  0  0  0  0  0  0  0  0  0  0
   -8.6995  -21.6548   22.9067 H   0  0  0  0  0  0  0  0  0  0  0  0
   -7.5656  -18.8078   21.5108 H   0  0  0  0  0  0  0  0  0  0  0  0
   -7.0072  -19.5864   22.8551 H   0  0  0  0  0  0  0  0  0  0  0  0
   -6.3559  -17.2600   22.4194 H   0  0  0  0  0  0  0  0  0  0  0  0
   -7.5091  -15.2832   24.8243 H   0  0  0  0  0  0  0  0  0  0  0  0
   -5.7144  -15.5735   23.9057 H   0  0  0  0  0  0  0  0  0  0  0  0
   -6.6860  -13.3437   26.0687 H   0  0  0  0  0  0  0  0  0  0  0  0
   -5.0185  -12.2728   27.2374 H   0  0  0  0  0  0  0  0  0  0  0  0
   -2.6871  -12.3199   26.4961 H   0  0  0  0  0  0  0  0  0  0  0  0
   -0.8203  -13.7161   24.6016 H   0  0  0  0  0  0  0  0  0  0  0  0
   -1.3724  -15.1722   22.4174 H   0  0  0  0  0  0  0  0  0  0  0  0
   -3.8318  -15.5025   22.4001 H   0  0  0  0  0  0  0  0  0  0  0  0
  -10.7463  -22.1485   22.0578 H   0  0  0  0  0  0  0  0  0  0  0  0
  -11.0520  -20.8332   20.9457 H   0  0  0  0  0  0  0  0  0  0  0  0
  -12.6586  -23.5646   19.2528 H   0  0  0  0  0  0  0  0  0  0  0  0
  -13.0238  -21.6663   18.8725 H   0  0  0  0  0  0  0  0  0  0  0  0
  -13.5884  -23.6005   16.7900 H   0  0  0  0  0  0  0  0  0  0  0  0
  -14.6690  -23.8302   18.0264 H   0  0  0  0  0  0  0  0  0  0  0  0
  -12.8653  -25.7002   17.0919 H   0  0  0  0  0  0  0  0  0  0  0  0
  -14.4240  -25.8264   17.8285 H   0  0  0  0  0  0  0  0  0  0  0  0
  -13.6180  -26.0957   19.8390 H   0  0  0  0  0  0  0  0  0  0  0  0
  -12.1281  -26.3613   18.8950 H   0  0  0  0  0  0  0  0  0  0  0  0
  -12.4371  -24.9408   21.1367 H   0  0  0  0  0  0  0  0  0  0  0  0
  -10.8670  -24.6929   20.5275 H   0  0  0  0  0  0  0  0  0  0  0  0
  1  2  1  0
  2  3  1  0
  3  4  1  0
  4  5  1  0
  5  6  1  0
  6  7  2  0
  7  8  1  0
  8  9  2  0
  9 10  1  0
 10 11  1  0
 11 12  2  0
 12 13  1  0
 13 14  1  0
  2 15  1  0
 15 16  1  0
 16 17  1  0
 17 18  1  0
 18 19  1  0
 19 20  1  0
 20 21  1  0
 14  6  1  0
 21 16  1  0
 14 10  2  0
  1 22  1  0
  2 23  1  0
  3 24  1  0
  3 25  1  0
  4 26  1  0
  5 27  1  0
  5 28  1  0
  7 29  1  0
  8 30  1  0
  9 31  1  0
 11 32  1  0
 12 33  1  0
 13 34  1  0
 15 35  1  0
 15 36  1  0
 17 37  1  0
 17 38  1  0
 18 39  1  0
 18 40  1  0
 19 41  1  0
 19 42  1  0
 20 43  1  0
 20 44  1  0
 21 45  1  0
 21 46  1  0
M  END
>  <Energy>  (684) 
1070.299431805995

>  <compound_id>  (684) 
11859

>  <target_id>  (684) 
1

>  <reference_id>  (684) 
40

>  <inspiration_ids>  (684) 
[40, 9]

>  <energy_score>  (684) 
968.2218754635686

>  <distance_score>  (684) 
9.720262741834967

>  <path>  (684) 
/opt/xchem-fragalysis-2/maxwin/BulkDock/SCRATCH/511015/C11859-P40/C11859-P40.minimised.mol

>  <scratch_subdir>  (684) 
/opt/xchem-fragalysis-2/maxwin/BulkDock/SCRATCH/511015/C11859-P40

>  <fragmenstein_runtime>  (684) 
12.989813566207886

>  <fragmenstein_outcome>  (684) 
too moved

>  <fragmenstein_mode>  (684) 
expansion

>  <fragmenstein_error>  (684) 


$$$$
C11859-P9
     RDKit          3D

 46 48  0  0  0  0  0  0  0  0999 V2000
   -9.3930  -21.4890   20.8482 O   0  0  0  0  0  0  0  0  0  0  0  0
   -8.5330  -20.2986   20.1251 C   0  0  0  0  0  0  0  0  0  0  0  0
   -7.4258  -19.3379   21.7172 C   0  0  0  0  0  0  0  0  0  0  0  0
   -6.4179  -18.9725   23.4416 N   0  0  0  0  0  0  0  0  0  0  0  0
   -5.3566  -19.6206   25.1123 C   0  0  0  0  0  0  0  0  0  0  0  0
   -3.8341  -20.4316   25.8494 C   0  0  0  0  0  0  0  0  0  0  0  0
   -4.1172  -20.6255   27.2662 C   0  0  0  0  0  0  0  0  0  0  0  0
   -3.2777  -20.1954   28.3135 C   0  0  0  0  0  0  0  0  0  0  0  0
   -2.0435  -19.6202   28.0433 C   0  0  0  0  0  0  0  0  0  0  0  0
   -1.5740  -19.6967   26.7262 C   0  0  0  0  0  0  0  0  0  0  0  0
   -0.3416  -19.2941   26.1321 C   0  0  0  0  0  0  0  0  0  0  0  0
   -0.3560  -19.7359   24.8338 C   0  0  0  0  0  0  0  0  0  0  0  0
   -1.5385  -20.4131   24.6401 N   0  0  0  0  0  0  0  0  0  0  0  0
   -2.4087  -20.2226   25.7095 C   0  0  0  0  0  0  0  0  0  0  0  0
   -8.6416  -20.7488   18.0402 C   0  0  0  0  0  0  0  0  0  0  0  0
   -9.4785  -21.6239   16.4325 N   0  0  0  0  0  0  0  0  0  0  0  0
   -9.2467  -23.0892   15.7093 C   0  0  0  0  0  0  0  0  0  0  0  0
   -9.9414  -24.0766   14.6423 C   0  0  0  0  0  0  0  0  0  0  0  0
  -10.5237  -23.4184   13.4559 C   0  0  0  0  0  0  0  0  0  0  0  0
  -10.1862  -21.9738   13.5533 C   0  0  0  0  0  0  0  0  0  0  0  0
   -9.6540  -21.3373   14.9446 C   0  0  0  0  0  0  0  0  0  0  0  0
   -9.7909  -21.0112   21.5919 H   0  0  0  0  0  0  0  0  0  0  0  0
   -9.4855  -20.0239   19.7779 H   0  0  0  0  0  0  0  0  0  0  0  0
   -8.0803  -19.7432   22.4859 H   0  0  0  0  0  0  0  0  0  0  0  0
   -7.5642  -18.2763   21.5363 H   0  0  0  0  0  0  0  0  0  0  0  0
   -5.7316  -18.3323   23.0422 H   0  0  0  0  0  0  0  0  0  0  0  0
   -5.9637  -19.4698   26.0103 H   0  0  0  0  0  0  0  0  0  0  0  0
   -5.2439  -20.7654   24.8263 H   0  0  0  0  0  0  0  0  0  0  0  0
   -5.1232  -20.9244   27.5531 H   0  0  0  0  0  0  0  0  0  0  0  0
   -3.6376  -20.2497   29.3368 H   0  0  0  0  0  0  0  0  0  0  0  0
   -1.4254  -19.2216   28.8391 H   0  0  0  0  0  0  0  0  0  0  0  0
    0.4803  -18.7923   26.6244 H   0  0  0  0  0  0  0  0  0  0  0  0
    0.3847  -19.6821   24.0477 H   0  0  0  0  0  0  0  0  0  0  0  0
   -1.8090  -20.8761   23.7837 H   0  0  0  0  0  0  0  0  0  0  0  0
   -9.2309  -19.8934   17.7876 H   0  0  0  0  0  0  0  0  0  0  0  0
   -9.2745  -21.4480   18.4869 H   0  0  0  0  0  0  0  0  0  0  0  0
   -8.1974  -23.1976   15.6305 H   0  0  0  0  0  0  0  0  0  0  0  0
   -9.9427  -23.3662   16.3662 H   0  0  0  0  0  0  0  0  0  0  0  0
  -10.6911  -24.7253   15.1144 H   0  0  0  0  0  0  0  0  0  0  0  0
   -9.2717  -24.8598   14.2928 H   0  0  0  0  0  0  0  0  0  0  0  0
  -11.6056  -23.5815   13.4085 H   0  0  0  0  0  0  0  0  0  0  0  0
  -10.1265  -23.8480   12.5284 H   0  0  0  0  0  0  0  0  0  0  0  0
   -9.4333  -21.7963   12.7702 H   0  0  0  0  0  0  0  0  0  0  0  0
  -11.0224  -21.3869   13.2257 H   0  0  0  0  0  0  0  0  0  0  0  0
   -8.6386  -21.6320   14.6010 H   0  0  0  0  0  0  0  0  0  0  0  0
  -10.0563  -20.3442   14.8865 H   0  0  0  0  0  0  0  0  0  0  0  0
  1  2  1  0
  2  3  1  0
  3  4  1  0
  4  5  1  0
  5  6  1  0
  6  7  2  0
  7  8  1  0
  8  9  2  0
  9 10  1  0
 10 11  1  0
 11 12  2  0
 12 13  1  0
 13 14  1  0
  2 15  1  0
 15 16  1  0
 16 17  1  0
 17 18  1  0
 18 19  1  0
 19 20  1  0
 20 21  1  0
 14  6  1  0
 21 16  1  0
 14 10  2  0
  1 22  1  0
  2 23  1  0
  3 24  1  0
  3 25  1  0
  4 26  1  0
  5 27  1  0
  5 28  1  0
  7 29  1  0
  8 30  1  0
  9 31  1  0
 11 32  1  0
 12 33  1  0
 13 34  1  0
 15 35  1  0
 15 36  1  0
 17 37  1  0
 17 38  1  0
 18 39  1  0
 18 40  1  0
 19 41  1  0
 19 42  1  0
 20 43  1  0
 20 44  1  0
 21 45  1  0
 21 46  1  0
M  END
>  <Energy>  (685) 
1079.7124834078552

>  <compound_id>  (685) 
11859

>  <target_id>  (685) 
1

>  <reference_id>  (685) 
9

>  <inspiration_ids>  (685) 
[40, 9]

>  <energy_score>  (685) 
977.6349270654147

>  <distance_score>  (685) 
11.702528882062303

>  <path>  (685) 
/opt/xchem-fragalysis-2/maxwin/BulkDock/SCRATCH/511015/C11859-P9/C11859-P9.minimised.mol

>  <scratch_subdir>  (685) 
/opt/xchem-fragalysis-2/maxwin/BulkDock/SCRATCH/511015/C11859-P9

>  <fragmenstein_runtime>  (685) 
15.97322940826416

>  <fragmenstein_outcome>  (685) 
too moved

>  <fragmenstein_mode>  (685) 
expansion

>  <fragmenstein_error>  (685) 


$$$$
C11862-P40
     RDKit          3D

 45 47  0  0  0  0  0  0  0  0999 V2000
   -3.7743   -8.7320   22.5618 C   0  0  0  0  0  0  0  0  0  0  0  0
   -3.1460   -9.1945   24.2367 C   0  0  0  0  0  0  0  0  0  0  0  0
   -3.5598  -11.2800   23.9597 O   0  0  0  0  0  0  0  0  0  0  0  0
   -4.5084  -13.0319   23.7223 C   0  0  0  0  0  0  0  0  0  0  0  0
   -5.7035  -12.8684   23.9839 O   0  0  0  0  0  0  0  0  0  0  0  0
   -4.2052  -15.0808   22.9702 C   0  0  0  0  0  0  0  0  0  0  0  0
   -4.1529  -16.2058   21.4193 C   0  0  0  0  0  0  0  0  0  0  0  0
   -4.7955  -17.5146   20.2708 C   0  0  0  0  0  0  0  0  0  0  0  0
   -5.9105  -18.2526   20.5749 C   0  0  0  0  0  0  0  0  0  0  0  0
   -6.0501  -17.9710   21.8971 C   0  0  0  0  0  0  0  0  0  0  0  0
   -7.2371  -18.6576   22.3126 C   0  0  0  0  0  0  0  0  0  0  0  0
   -7.6748  -19.4091   21.2247 C   0  0  0  0  0  0  0  0  0  0  0  0
   -6.8300  -19.1481   20.1605 N   0  0  0  0  0  0  0  0  0  0  0  0
   -6.9517  -19.7223   18.8419 C   0  0  0  0  0  0  0  0  0  0  0  0
   -4.7921  -16.7687   22.3960 C   0  0  0  0  0  0  0  0  0  0  0  0
   -2.2261   -7.0572   24.9014 C   0  0  0  0  0  0  0  0  0  0  0  0
   -1.1706   -6.9714   24.4158 O   0  0  0  0  0  0  0  0  0  0  0  0
   -2.5112   -5.4558   26.2676 N   0  0  0  0  0  0  0  0  0  0  0  0
   -3.2985   -3.8458   25.3560 C   0  0  0  0  0  0  0  0  0  0  0  0
   -2.4537   -4.3566   24.2260 C   0  0  0  0  0  0  0  0  0  0  0  0
   -0.5509   -4.8684   24.5939 C   0  0  0  0  0  0  0  0  0  0  0  0
    0.0914   -4.4616   26.5972 C   0  0  0  0  0  0  0  0  0  0  0  0
   -1.2749   -4.0377   26.9538 C   0  0  0  0  0  0  0  0  0  0  0  0
   -4.5636   -7.9918   22.6257 H   0  0  0  0  0  0  0  0  0  0  0  0
   -3.8775   -9.6925   22.0979 H   0  0  0  0  0  0  0  0  0  0  0  0
   -3.2908   -7.8875   22.0830 H   0  0  0  0  0  0  0  0  0  0  0  0
   -2.2183   -9.7558   24.3761 H   0  0  0  0  0  0  0  0  0  0  0  0
   -3.2034  -16.0982   20.7395 H   0  0  0  0  0  0  0  0  0  0  0  0
   -4.4523  -17.5114   19.2367 H   0  0  0  0  0  0  0  0  0  0  0  0
   -7.6898  -18.6193   23.2928 H   0  0  0  0  0  0  0  0  0  0  0  0
   -8.5142  -20.0839   21.1210 H   0  0  0  0  0  0  0  0  0  0  0  0
   -7.9763  -20.0670   18.6902 H   0  0  0  0  0  0  0  0  0  0  0  0
   -6.2402  -20.5465   18.7595 H   0  0  0  0  0  0  0  0  0  0  0  0
   -6.7104  -18.9437   18.1149 H   0  0  0  0  0  0  0  0  0  0  0  0
   -5.7332  -17.0907   23.3338 H   0  0  0  0  0  0  0  0  0  0  0  0
   -3.0604   -2.8479   25.7900 H   0  0  0  0  0  0  0  0  0  0  0  0
   -4.2104   -3.5912   24.7453 H   0  0  0  0  0  0  0  0  0  0  0  0
   -2.9701   -5.0864   23.5794 H   0  0  0  0  0  0  0  0  0  0  0  0
   -2.6764   -3.2916   23.8444 H   0  0  0  0  0  0  0  0  0  0  0  0
    0.1108   -5.5398   24.0466 H   0  0  0  0  0  0  0  0  0  0  0  0
   -0.1179   -4.2776   23.7216 H   0  0  0  0  0  0  0  0  0  0  0  0
    0.6978   -3.6105   27.0415 H   0  0  0  0  0  0  0  0  0  0  0  0
    0.7655   -5.2560   27.0272 H   0  0  0  0  0  0  0  0  0  0  0  0
   -1.5368   -2.9454   27.1277 H   0  0  0  0  0  0  0  0  0  0  0  0
   -1.2395   -4.3011   28.0539 H   0  0  0  0  0  0  0  0  0  0  0  0
  1  2  1  0
  2  3  1  0
  3  4  1  0
  4  5  2  0
  4  6  1  0
  6  7  2  0
  7  8  1  0
  8  9  2  0
  9 10  1  0
 10 11  1  0
 11 12  2  0
 12 13  1  0
 13 14  1  0
 10 15  2  0
  2 16  1  0
 16 17  2  0
 16 18  1  0
 18 19  1  0
 19 20  1  0
 20 21  1  0
 21 22  1  0
 22 23  1  0
 15  6  1  0
 23 18  1  0
 13  9  1  0
  1 24  1  0
  1 25  1  0
  1 26  1  0
  2 27  1  0
  7 28  1  0
  8 29  1  0
 11 30  1  0
 12 31  1  0
 14 32  1  0
 14 33  1  0
 14 34  1  0
 15 35  1  0
 19 36  1  0
 19 37  1  0
 20 38  1  0
 20 39  1  0
 21 40  1  0
 21 41  1  0
 22 42  1  0
 22 43  1  0
 23 44  1  0
 23 45  1  0
M  END
>  <Energy>  (686) 
2325.1194853900515

>  <compound_id>  (686) 
11862

>  <target_id>  (686) 
1

>  <reference_id>  (686) 
40

>  <inspiration_ids>  (686) 
[40, 9]

>  <energy_score>  (686) 
2249.937535593981

>  <distance_score>  (686) 
11.780531557822272

>  <path>  (686) 
/opt/xchem-fragalysis-2/maxwin/BulkDock/SCRATCH/511015/C11862-P40/C11862-P40.minimised.mol

>  <scratch_subdir>  (686) 
/opt/xchem-fragalysis-2/maxwin/BulkDock/SCRATCH/511015/C11862-P40

>  <fragmenstein_runtime>  (686) 
17.149154901504517

>  <fragmenstein_outcome>  (686) 
too moved

>  <fragmenstein_mode>  (686) 
expansion

>  <fragmenstein_error>  (686) 


$$$$
C11862-P9
     RDKit          3D

 45 47  0  0  0  0  0  0  0  0999 V2000
  -10.8572  -15.4199   27.2947 C   0  0  0  0  0  0  0  0  0  0  0  0
   -9.6933  -16.3186   27.7159 C   0  0  0  0  0  0  0  0  0  0  0  0
   -9.5011  -17.2231   26.5889 O   0  0  0  0  0  0  0  0  0  0  0  0
   -9.7967  -18.5276   26.8370 C   0  0  0  0  0  0  0  0  0  0  0  0
   -9.8095  -19.0521   27.9425 O   0  0  0  0  0  0  0  0  0  0  0  0
  -10.2285  -19.2827   25.6161 C   0  0  0  0  0  0  0  0  0  0  0  0
   -9.7257  -19.1003   24.3225 C   0  0  0  0  0  0  0  0  0  0  0  0
  -10.2666  -19.8018   23.2223 C   0  0  0  0  0  0  0  0  0  0  0  0
  -11.3645  -20.6499   23.4559 C   0  0  0  0  0  0  0  0  0  0  0  0
  -11.8720  -20.8639   24.7359 C   0  0  0  0  0  0  0  0  0  0  0  0
  -13.0037  -21.7132   24.6319 C   0  0  0  0  0  0  0  0  0  0  0  0
  -13.2048  -21.9399   23.2979 C   0  0  0  0  0  0  0  0  0  0  0  0
  -12.1583  -21.3892   22.6135 N   0  0  0  0  0  0  0  0  0  0  0  0
  -11.9452  -21.5478   21.2030 C   0  0  0  0  0  0  0  0  0  0  0  0
  -11.2713  -20.2044   25.8198 C   0  0  0  0  0  0  0  0  0  0  0  0
   -8.3813  -15.5745   28.2090 C   0  0  0  0  0  0  0  0  0  0  0  0
   -7.4209  -16.2436   28.4997 O   0  0  0  0  0  0  0  0  0  0  0  0
   -8.5374  -14.1424   28.1370 N   0  0  0  0  0  0  0  0  0  0  0  0
   -9.0174  -13.5911   29.4900 C   0  0  0  0  0  0  0  0  0  0  0  0
   -8.1640  -13.7054   30.7753 C   0  0  0  0  0  0  0  0  0  0  0  0
   -6.9465  -12.8187   30.6795 C   0  0  0  0  0  0  0  0  0  0  0  0
   -6.3885  -13.1375   29.3261 C   0  0  0  0  0  0  0  0  0  0  0  0
   -7.5201  -13.0249   28.2910 C   0  0  0  0  0  0  0  0  0  0  0  0
  -11.2363  -14.8141   28.1207 H   0  0  0  0  0  0  0  0  0  0  0  0
  -11.6905  -16.0222   26.9151 H   0  0  0  0  0  0  0  0  0  0  0  0
  -10.5607  -14.7484   26.4859 H   0  0  0  0  0  0  0  0  0  0  0  0
  -10.0372  -16.8682   28.6021 H   0  0  0  0  0  0  0  0  0  0  0  0
   -8.8999  -18.4085   24.1598 H   0  0  0  0  0  0  0  0  0  0  0  0
   -9.8662  -19.6487   22.2247 H   0  0  0  0  0  0  0  0  0  0  0  0
  -13.6467  -22.0381   25.4390 H   0  0  0  0  0  0  0  0  0  0  0  0
  -14.0022  -22.4537   22.7961 H   0  0  0  0  0  0  0  0  0  0  0  0
  -12.4592  -20.7342   20.6868 H   0  0  0  0  0  0  0  0  0  0  0  0
  -10.8710  -21.5251   21.0147 H   0  0  0  0  0  0  0  0  0  0  0  0
  -12.3503  -22.5125   20.9122 H   0  0  0  0  0  0  0  0  0  0  0  0
  -11.6737  -20.3535   26.8200 H   0  0  0  0  0  0  0  0  0  0  0  0
   -9.4746  -12.5930   29.3775 H   0  0  0  0  0  0  0  0  0  0  0  0
   -9.8917  -14.2167   29.7211 H   0  0  0  0  0  0  0  0  0  0  0  0
   -8.7651  -13.4128   31.6438 H   0  0  0  0  0  0  0  0  0  0  0  0
   -7.8649  -14.7491   30.9310 H   0  0  0  0  0  0  0  0  0  0  0  0
   -7.2299  -11.7623   30.7471 H   0  0  0  0  0  0  0  0  0  0  0  0
   -6.2298  -13.0311   31.4785 H   0  0  0  0  0  0  0  0  0  0  0  0
   -5.9986  -14.1585   29.3565 H   0  0  0  0  0  0  0  0  0  0  0  0
   -5.5603  -12.4732   29.0827 H   0  0  0  0  0  0  0  0  0  0  0  0
   -6.9971  -13.1013   27.3293 H   0  0  0  0  0  0  0  0  0  0  0  0
   -7.9661  -12.0181   28.2257 H   0  0  0  0  0  0  0  0  0  0  0  0
  1  2  1  0
  2  3  1  0
  3  4  1  0
  4  5  2  0
  4  6  1  0
  6  7  2  0
  7  8  1  0
  8  9  2  0
  9 10  1  0
 10 11  1  0
 11 12  2  0
 12 13  1  0
 13 14  1  0
 10 15  2  0
  2 16  1  0
 16 17  2  0
 16 18  1  0
 18 19  1  0
 19 20  1  0
 20 21  1  0
 21 22  1  0
 22 23  1  0
 15  6  1  0
 23 18  1  0
 13  9  1  0
  1 24  1  0
  1 25  1  0
  1 26  1  0
  2 27  1  0
  7 28  1  0
  8 29  1  0
 11 30  1  0
 12 31  1  0
 14 32  1  0
 14 33  1  0
 14 34  1  0
 15 35  1  0
 19 36  1  0
 19 37  1  0
 20 38  1  0
 20 39  1  0
 21 40  1  0
 21 41  1  0
 22 42  1  0
 22 43  1  0
 23 44  1  0
 23 45  1  0
M  END
>  <Energy>  (687) 
126.27862901840994

>  <compound_id>  (687) 
11862

>  <target_id>  (687) 
1

>  <reference_id>  (687) 
9

>  <inspiration_ids>  (687) 
[40, 9]

>  <energy_score>  (687) 
51.09667922232694

>  <distance_score>  (687) 
12.237830072990949

>  <path>  (687) 
/opt/xchem-fragalysis-2/maxwin/BulkDock/SCRATCH/511015/C11862-P9/C11862-P9.minimised.mol

>  <scratch_subdir>  (687) 
/opt/xchem-fragalysis-2/maxwin/BulkDock/SCRATCH/511015/C11862-P9

>  <fragmenstein_runtime>  (687) 
30.549108743667603

>  <fragmenstein_outcome>  (687) 
too moved

>  <fragmenstein_mode>  (687) 
expansion

>  <fragmenstein_error>  (687) 


$$$$
C11869-P40
     RDKit          3D

 62 64  0  0  0  0  0  0  0  0999 V2000
    3.5657   -4.0129   26.6574 C   0  0  0  0  0  0  0  0  0  0  0  0
    2.5510   -4.4590   27.7272 C   0  0  0  0  0  0  0  0  0  0  0  0
    2.3582   -3.4437   28.8899 C   0  0  0  0  0  0  0  0  0  0  0  0
    2.0208   -5.8810   27.8765 N   0  0  0  0  0  0  0  0  0  0  0  0
    1.0656   -6.4387   28.8162 C   0  0  0  0  0  0  0  0  0  0  0  0
    0.5260   -5.9389   29.7652 O   0  0  0  0  0  0  0  0  0  0  0  0
    0.8209   -7.9751   28.5477 C   0  0  0  0  0  0  0  0  0  0  0  0
   -0.5228   -8.7164   28.3580 N   0  0  0  0  0  0  0  0  0  0  0  0
   -0.8982  -10.4183   28.0507 C   0  0  0  0  0  0  0  0  0  0  0  0
   -2.1795  -11.3707   27.1577 C   0  0  0  0  0  0  0  0  0  0  0  0
   -2.2338  -13.3640   25.6265 S   0  0  0  0  0  0  0  0  0  0  0  0
   -3.3922  -14.8449   23.7355 C   0  0  0  0  0  0  0  0  0  0  0  0
   -3.9575  -16.0809   21.9472 C   0  0  0  0  0  0  0  0  0  0  0  0
   -3.0800  -16.1126   21.1069 O   0  0  0  0  0  0  0  0  0  0  0  0
   -5.3774  -16.9763   21.3532 N   0  0  0  0  0  0  0  0  0  0  0  0
   -5.6718  -17.5854   20.1051 C   0  0  0  0  0  0  0  0  0  0  0  0
   -5.1978  -18.5644   19.0246 C   0  0  0  0  0  0  0  0  0  0  0  0
   -6.5166  -19.1031   18.9707 C   0  0  0  0  0  0  0  0  0  0  0  0
   -6.5083  -19.3912   20.4605 C   0  0  0  0  0  0  0  0  0  0  0  0
   -5.7491  -18.3915   21.5087 C   0  0  0  0  0  0  0  0  0  0  0  0
   -1.7025  -10.7504   29.0728 C   0  0  0  0  0  0  0  0  0  0  0  0
   -1.1475  -10.7639   30.4726 C   0  0  0  0  0  0  0  0  0  0  0  0
   -1.2687   -9.6485   31.6946 C   0  0  0  0  0  0  0  0  0  0  0  0
   -1.6655   -8.3858   31.7215 C   0  0  0  0  0  0  0  0  0  0  0  0
   -1.2080   -8.0615   30.5414 C   0  0  0  0  0  0  0  0  0  0  0  0
   -1.0082   -9.1137   29.4671 C   0  0  0  0  0  0  0  0  0  0  0  0
    3.4805   -6.1376   28.3763 C   0  0  0  0  0  0  0  0  0  0  0  0
    4.3425   -6.8198   27.2832 C   0  0  0  0  0  0  0  0  0  0  0  0
    4.3346   -5.3722   29.4137 C   0  0  0  0  0  0  0  0  0  0  0  0
    3.4343   -2.9487   26.4418 H   0  0  0  0  0  0  0  0  0  0  0  0
    4.6070   -4.0982   26.9731 H   0  0  0  0  0  0  0  0  0  0  0  0
    3.4316   -4.5728   25.7298 H   0  0  0  0  0  0  0  0  0  0  0  0
    1.6420   -4.1537   27.2028 H   0  0  0  0  0  0  0  0  0  0  0  0
    1.9251   -3.8939   29.7853 H   0  0  0  0  0  0  0  0  0  0  0  0
    3.2967   -2.9500   29.1602 H   0  0  0  0  0  0  0  0  0  0  0  0
    1.6810   -2.6362   28.5815 H   0  0  0  0  0  0  0  0  0  0  0  0
    1.1001   -8.3675   29.5252 H   0  0  0  0  0  0  0  0  0  0  0  0
    1.4877   -8.3263   27.7653 H   0  0  0  0  0  0  0  0  0  0  0  0
   -0.0271  -10.7157   28.5651 H   0  0  0  0  0  0  0  0  0  0  0  0
   -2.3012  -14.7612   23.5908 H   0  0  0  0  0  0  0  0  0  0  0  0
   -3.3609  -15.6550   24.4758 H   0  0  0  0  0  0  0  0  0  0  0  0
   -4.6175  -17.3159   19.8710 H   0  0  0  0  0  0  0  0  0  0  0  0
   -6.5442  -17.0387   19.7323 H   0  0  0  0  0  0  0  0  0  0  0  0
   -4.7925  -18.1216   18.1244 H   0  0  0  0  0  0  0  0  0  0  0  0
   -4.5179  -19.3176   19.3877 H   0  0  0  0  0  0  0  0  0  0  0  0
   -6.6866  -19.9726   18.3923 H   0  0  0  0  0  0  0  0  0  0  0  0
   -7.1165  -18.3375   18.4946 H   0  0  0  0  0  0  0  0  0  0  0  0
   -7.5238  -19.5496   20.7877 H   0  0  0  0  0  0  0  0  0  0  0  0
   -5.7385  -20.1725   20.5043 H   0  0  0  0  0  0  0  0  0  0  0  0
   -6.8094  -18.0444   21.7648 H   0  0  0  0  0  0  0  0  0  0  0  0
   -5.8802  -18.5908   22.5784 H   0  0  0  0  0  0  0  0  0  0  0  0
   -0.3759  -11.4404   30.7344 H   0  0  0  0  0  0  0  0  0  0  0  0
   -0.6358   -9.7078   32.5545 H   0  0  0  0  0  0  0  0  0  0  0  0
   -1.7315   -7.7198   32.5636 H   0  0  0  0  0  0  0  0  0  0  0  0
   -1.1292   -7.0148   30.2880 H   0  0  0  0  0  0  0  0  0  0  0  0
    3.2787   -7.0103   28.9980 H   0  0  0  0  0  0  0  0  0  0  0  0
    3.7242   -7.4611   26.6460 H   0  0  0  0  0  0  0  0  0  0  0  0
    5.1127   -7.4447   27.7496 H   0  0  0  0  0  0  0  0  0  0  0  0
    4.8764   -6.1280   26.6325 H   0  0  0  0  0  0  0  0  0  0  0  0
    3.7475   -5.0849   30.2888 H   0  0  0  0  0  0  0  0  0  0  0  0
    5.1468   -6.0210   29.7643 H   0  0  0  0  0  0  0  0  0  0  0  0
    4.8414   -4.4912   29.0159 H   0  0  0  0  0  0  0  0  0  0  0  0
  1  2  1  0
  2  3  1  0
  2  4  1  0
  4  5  1  0
  5  6  2  0
  5  7  1  0
  7  8  1  0
  8  9  1  0
  9 10  2  0
 10 11  1  0
 11 12  1  0
 12 13  1  0
 13 14  2  0
 13 15  1  0
 15 16  1  0
 16 17  1  0
 17 18  1  0
 18 19  1  0
 19 20  1  0
 10 21  1  0
 21 22  2  0
 22 23  1  0
 23 24  2  0
 24 25  1  0
 25 26  2  0
  4 27  1  0
 27 28  1  0
 27 29  1  0
 26  8  1  0
 20 15  1  0
 26 21  1  0
  1 30  1  0
  1 31  1  0
  1 32  1  0
  2 33  1  0
  3 34  1  0
  3 35  1  0
  3 36  1  0
  7 37  1  0
  7 38  1  0
  9 39  1  0
 12 40  1  0
 12 41  1  0
 16 42  1  0
 16 43  1  0
 17 44  1  0
 17 45  1  0
 18 46  1  0
 18 47  1  0
 19 48  1  0
 19 49  1  0
 20 50  1  0
 20 51  1  0
 22 52  1  0
 23 53  1  0
 24 54  1  0
 25 55  1  0
 27 56  1  0
 28 57  1  0
 28 58  1  0
 28 59  1  0
 29 60  1  0
 29 61  1  0
 29 62  1  0
M  END
>  <Energy>  (688) 
2026.325939032982

>  <compound_id>  (688) 
11869

>  <target_id>  (688) 
1

>  <reference_id>  (688) 
40

>  <inspiration_ids>  (688) 
[40, 9]

>  <energy_score>  (688) 
1923.36621400914

>  <distance_score>  (688) 
8.104697266157919

>  <path>  (688) 
/opt/xchem-fragalysis-2/maxwin/BulkDock/SCRATCH/511015/C11869-P40/C11869-P40.minimised.mol

>  <scratch_subdir>  (688) 
/opt/xchem-fragalysis-2/maxwin/BulkDock/SCRATCH/511015/C11869-P40

>  <fragmenstein_runtime>  (688) 
28.171589612960815

>  <fragmenstein_outcome>  (688) 
too moved

>  <fragmenstein_mode>  (688) 
expansion

>  <fragmenstein_error>  (688) 


$$$$
C11869-P9
     RDKit          3D

 62 64  0  0  0  0  0  0  0  0999 V2000
    2.6474   -4.1437   29.7642 C   0  0  0  0  0  0  0  0  0  0  0  0
    2.5582   -4.8408   28.3843 C   0  0  0  0  0  0  0  0  0  0  0  0
    3.1476   -4.0680   27.1834 C   0  0  0  0  0  0  0  0  0  0  0  0
    2.2089   -6.3216   28.3011 N   0  0  0  0  0  0  0  0  0  0  0  0
    1.5851   -7.2232   29.3011 C   0  0  0  0  0  0  0  0  0  0  0  0
    1.2890   -7.0237   30.4518 O   0  0  0  0  0  0  0  0  0  0  0  0
    1.1368   -8.7792   28.5525 C   0  0  0  0  0  0  0  0  0  0  0  0
   -0.4155   -9.5808   28.1260 N   0  0  0  0  0  0  0  0  0  0  0  0
   -1.5365  -10.7300   27.3057 C   0  0  0  0  0  0  0  0  0  0  0  0
   -2.5442  -11.9739   27.4252 C   0  0  0  0  0  0  0  0  0  0  0  0
   -2.2756  -13.8570   25.8529 S   0  0  0  0  0  0  0  0  0  0  0  0
   -3.6155  -15.2054   24.0325 C   0  0  0  0  0  0  0  0  0  0  0  0
   -4.1137  -16.3290   22.1752 C   0  0  0  0  0  0  0  0  0  0  0  0
   -3.2969  -16.4450   21.3057 O   0  0  0  0  0  0  0  0  0  0  0  0
   -5.6575  -17.0366   21.6520 N   0  0  0  0  0  0  0  0  0  0  0  0
   -6.0812  -17.5700   20.4391 C   0  0  0  0  0  0  0  0  0  0  0  0
   -5.8105  -18.2405   19.1143 C   0  0  0  0  0  0  0  0  0  0  0  0
   -5.8604  -19.5938   19.6449 C   0  0  0  0  0  0  0  0  0  0  0  0
   -6.8653  -19.3845   20.7290 C   0  0  0  0  0  0  0  0  0  0  0  0
   -6.2020  -18.4629   21.8242 C   0  0  0  0  0  0  0  0  0  0  0  0
   -1.8833  -10.9959   29.0620 C   0  0  0  0  0  0  0  0  0  0  0  0
   -1.6371  -10.6628   30.5567 C   0  0  0  0  0  0  0  0  0  0  0  0
   -1.6290   -9.4478   31.6173 C   0  0  0  0  0  0  0  0  0  0  0  0
   -1.3164   -8.1981   31.3408 C   0  0  0  0  0  0  0  0  0  0  0  0
   -0.9944   -8.2696   30.0622 C   0  0  0  0  0  0  0  0  0  0  0  0
   -1.0763   -9.5318   29.1968 C   0  0  0  0  0  0  0  0  0  0  0  0
    3.7699   -6.4624   28.3413 C   0  0  0  0  0  0  0  0  0  0  0  0
    4.2725   -6.9666   26.9674 C   0  0  0  0  0  0  0  0  0  0  0  0
    4.9062   -5.7099   29.0990 C   0  0  0  0  0  0  0  0  0  0  0  0
    3.5470   -3.5244   29.8423 H   0  0  0  0  0  0  0  0  0  0  0  0
    1.8003   -3.4602   29.9069 H   0  0  0  0  0  0  0  0  0  0  0  0
    2.6235   -4.8500   30.5979 H   0  0  0  0  0  0  0  0  0  0  0  0
    1.5119   -4.5405   28.1952 H   0  0  0  0  0  0  0  0  0  0  0  0
    2.7776   -3.0367   27.1924 H   0  0  0  0  0  0  0  0  0  0  0  0
    4.2338   -3.9866   27.1757 H   0  0  0  0  0  0  0  0  0  0  0  0
    2.8577   -4.5355   26.2405 H   0  0  0  0  0  0  0  0  0  0  0  0
    1.2601   -9.3309   29.4586 H   0  0  0  0  0  0  0  0  0  0  0  0
    1.9692   -8.9764   27.9053 H   0  0  0  0  0  0  0  0  0  0  0  0
   -1.8215  -10.1318   26.4050 H   0  0  0  0  0  0  0  0  0  0  0  0
   -4.4752  -14.5779   23.7700 H   0  0  0  0  0  0  0  0  0  0  0  0
   -2.7363  -14.7479   23.6587 H   0  0  0  0  0  0  0  0  0  0  0  0
   -6.8035  -16.8325   20.1831 H   0  0  0  0  0  0  0  0  0  0  0  0
   -4.9880  -17.6106   20.2900 H   0  0  0  0  0  0  0  0  0  0  0  0
   -6.6910  -18.0832   18.4838 H   0  0  0  0  0  0  0  0  0  0  0  0
   -4.9328  -17.9714   18.5228 H   0  0  0  0  0  0  0  0  0  0  0  0
   -4.9229  -19.9801   20.0360 H   0  0  0  0  0  0  0  0  0  0  0  0
   -6.2518  -20.0792   18.7860 H   0  0  0  0  0  0  0  0  0  0  0  0
   -7.5729  -18.9205   20.1217 H   0  0  0  0  0  0  0  0  0  0  0  0
   -7.7557  -19.8869   21.0702 H   0  0  0  0  0  0  0  0  0  0  0  0
   -6.2423  -18.7563   22.8757 H   0  0  0  0  0  0  0  0  0  0  0  0
   -7.2281  -18.0716   22.1166 H   0  0  0  0  0  0  0  0  0  0  0  0
   -0.6256  -10.9764   30.7758 H   0  0  0  0  0  0  0  0  0  0  0  0
   -2.0811   -9.5358   32.5862 H   0  0  0  0  0  0  0  0  0  0  0  0
   -1.3475   -7.3383   31.9803 H   0  0  0  0  0  0  0  0  0  0  0  0
   -0.8023   -7.3241   29.5683 H   0  0  0  0  0  0  0  0  0  0  0  0
    3.8319   -7.3410   28.9514 H   0  0  0  0  0  0  0  0  0  0  0  0
    5.2458   -7.4598   27.0683 H   0  0  0  0  0  0  0  0  0  0  0  0
    4.3956   -6.1600   26.2423 H   0  0  0  0  0  0  0  0  0  0  0  0
    3.5780   -7.6959   26.5375 H   0  0  0  0  0  0  0  0  0  0  0  0
    5.2421   -4.7856   28.6305 H   0  0  0  0  0  0  0  0  0  0  0  0
    4.6605   -5.4962   30.1380 H   0  0  0  0  0  0  0  0  0  0  0  0
    5.7989   -6.3498   29.1296 H   0  0  0  0  0  0  0  0  0  0  0  0
  1  2  1  0
  2  3  1  0
  2  4  1  0
  4  5  1  0
  5  6  2  0
  5  7  1  0
  7  8  1  0
  8  9  1  0
  9 10  2  0
 10 11  1  0
 11 12  1  0
 12 13  1  0
 13 14  2  0
 13 15  1  0
 15 16  1  0
 16 17  1  0
 17 18  1  0
 18 19  1  0
 19 20  1  0
 10 21  1  0
 21 22  2  0
 22 23  1  0
 23 24  2  0
 24 25  1  0
 25 26  2  0
  4 27  1  0
 27 28  1  0
 27 29  1  0
 26  8  1  0
 20 15  1  0
 26 21  1  0
  1 30  1  0
  1 31  1  0
  1 32  1  0
  2 33  1  0
  3 34  1  0
  3 35  1  0
  3 36  1  0
  7 37  1  0
  7 38  1  0
  9 39  1  0
 12 40  1  0
 12 41  1  0
 16 42  1  0
 16 43  1  0
 17 44  1  0
 17 45  1  0
 18 46  1  0
 18 47  1  0
 19 48  1  0
 19 49  1  0
 20 50  1  0
 20 51  1  0
 22 52  1  0
 23 53  1  0
 24 54  1  0
 25 55  1  0
 27 56  1  0
 28 57  1  0
 28 58  1  0
 28 59  1  0
 29 60  1  0
 29 61  1  0
 29 62  1  0
M  END
>  <Energy>  (689) 
1843.6566590470172

>  <compound_id>  (689) 
11869

>  <target_id>  (689) 
1

>  <reference_id>  (689) 
9

>  <inspiration_ids>  (689) 
[40, 9]

>  <energy_score>  (689) 
1740.6969340231753

>  <distance_score>  (689) 
8.183976309166667

>  <path>  (689) 
/opt/xchem-fragalysis-2/maxwin/BulkDock/SCRATCH/511015/C11869-P9/C11869-P9.minimised.mol

>  <scratch_subdir>  (689) 
/opt/xchem-fragalysis-2/maxwin/BulkDock/SCRATCH/511015/C11869-P9

>  <fragmenstein_runtime>  (689) 
35.52299165725708

>  <fragmenstein_outcome>  (689) 
too moved

>  <fragmenstein_mode>  (689) 
expansion

>  <fragmenstein_error>  (689) 


$$$$
C11879-P40
     RDKit          3D

 44 46  0  0  0  0  0  0  0  0999 V2000
   -6.1253  -11.4316   24.6819 O   0  0  0  0  0  0  0  0  0  0  0  0
   -5.2310  -11.9482   24.0628 C   0  0  0  0  0  0  0  0  0  0  0  0
   -5.3420  -13.6715   23.5396 N   0  0  0  0  0  0  0  0  0  0  0  0
   -6.6196  -15.0056   23.8840 C   0  0  0  0  0  0  0  0  0  0  0  0
   -7.0676  -16.9582   23.2304 C   0  0  0  0  0  0  0  0  0  0  0  0
   -6.8047  -17.7695   21.6605 C   0  0  0  0  0  0  0  0  0  0  0  0
   -7.0923  -19.1986   21.5332 N   0  0  0  0  0  0  0  0  0  0  0  0
   -7.2566  -19.6287   20.1601 C   0  0  0  0  0  0  0  0  0  0  0  0
   -8.7136  -19.8685   19.8058 C   0  0  0  0  0  0  0  0  0  0  0  0
   -9.4926  -20.6880   20.8567 C   0  0  0  0  0  0  0  0  0  0  0  0
   -8.6591  -21.0311   22.0663 C   0  0  0  0  0  0  0  0  0  0  0  0
   -7.9987  -19.7542   22.5082 C   0  0  0  0  0  0  0  0  0  0  0  0
   -3.7189  -10.6200   23.6096 C   0  0  0  0  0  0  0  0  0  0  0  0
   -3.4329   -9.4575   24.2174 C   0  0  0  0  0  0  0  0  0  0  0  0
   -3.1293   -8.6848   26.0935 C   0  0  0  0  0  0  0  0  0  0  0  0
   -1.9414   -7.6643   26.7095 C   0  0  0  0  0  0  0  0  0  0  0  0
    0.0283   -7.2936   27.4445 C   0  0  0  0  0  0  0  0  0  0  0  0
    0.8274   -5.9173   26.1814 C   0  0  0  0  0  0  0  0  0  0  0  0
   -0.4491   -5.8610   24.5504 N   0  0  0  0  0  0  0  0  0  0  0  0
   -1.7529   -7.3851   24.7444 C   0  0  0  0  0  0  0  0  0  0  0  0
   -2.5309   -9.3453   24.2856 C   0  0  0  0  0  0  0  0  0  0  0  0
   -4.4931  -13.9319   23.1318 H   0  0  0  0  0  0  0  0  0  0  0  0
   -5.5740  -15.4067   24.0059 H   0  0  0  0  0  0  0  0  0  0  0  0
   -7.1739  -14.8132   24.8389 H   0  0  0  0  0  0  0  0  0  0  0  0
   -8.0542  -16.8855   22.8384 H   0  0  0  0  0  0  0  0  0  0  0  0
   -6.5551  -17.7440   23.7701 H   0  0  0  0  0  0  0  0  0  0  0  0
   -5.7575  -17.6550   21.3649 H   0  0  0  0  0  0  0  0  0  0  0  0
   -7.4148  -17.2194   20.9274 H   0  0  0  0  0  0  0  0  0  0  0  0
   -6.8170  -18.9177   19.4480 H   0  0  0  0  0  0  0  0  0  0  0  0
   -6.6664  -20.5383   20.0298 H   0  0  0  0  0  0  0  0  0  0  0  0
   -9.2184  -18.9016   19.6801 H   0  0  0  0  0  0  0  0  0  0  0  0
   -8.7255  -20.3456   18.8244 H   0  0  0  0  0  0  0  0  0  0  0  0
  -10.3678  -20.1014   21.1680 H   0  0  0  0  0  0  0  0  0  0  0  0
   -9.8979  -21.6243   20.4839 H   0  0  0  0  0  0  0  0  0  0  0  0
   -7.9073  -21.7980   21.8568 H   0  0  0  0  0  0  0  0  0  0  0  0
   -9.3005  -21.4169   22.8667 H   0  0  0  0  0  0  0  0  0  0  0  0
   -7.4417  -19.9531   23.4258 H   0  0  0  0  0  0  0  0  0  0  0  0
   -8.8174  -19.0648   22.7136 H   0  0  0  0  0  0  0  0  0  0  0  0
   -3.1135  -10.9889   24.2545 H   0  0  0  0  0  0  0  0  0  0  0  0
   -3.9975   -8.0328   26.6257 H   0  0  0  0  0  0  0  0  0  0  0  0
    0.2071   -7.1847   28.5274 H   0  0  0  0  0  0  0  0  0  0  0  0
    1.8273   -5.9902   25.7115 H   0  0  0  0  0  0  0  0  0  0  0  0
   -1.0824   -5.1484   24.7826 H   0  0  0  0  0  0  0  0  0  0  0  0
   -2.9406   -9.4450   22.7190 H   0  0  0  0  0  0  0  0  0  0  0  0
  1  2  2  0
  2  3  1  0
  3  4  1  0
  4  5  1  0
  5  6  1  0
  6  7  1  0
  7  8  1  0
  8  9  1  0
  9 10  1  0
 10 11  1  0
 11 12  1  0
  2 13  1  0
 13 14  2  0
 14 15  1  0
 15 16  2  0
 16 17  1  0
 17 18  2  0
 18 19  1  0
 19 20  1  0
 20 21  2  0
 12  7  1  0
 21 13  1  0
 20 16  1  0
  3 22  1  0
  4 23  1  0
  4 24  1  0
  5 25  1  0
  5 26  1  0
  6 27  1  0
  6 28  1  0
  8 29  1  0
  8 30  1  0
  9 31  1  0
  9 32  1  0
 10 33  1  0
 10 34  1  0
 11 35  1  0
 11 36  1  0
 12 37  1  0
 12 38  1  0
 14 39  1  0
 15 40  1  0
 17 41  1  0
 18 42  1  0
 19 43  1  0
 21 44  1  0
M  END
>  <Energy>  (690) 
2303.7359851279984

>  <compound_id>  (690) 
11879

>  <target_id>  (690) 
1

>  <reference_id>  (690) 
40

>  <inspiration_ids>  (690) 
[40, 9]

>  <energy_score>  (690) 
2257.873915585427

>  <distance_score>  (690) 
9.632490245301302

>  <path>  (690) 
/opt/xchem-fragalysis-2/maxwin/BulkDock/SCRATCH/511015/C11879-P40/C11879-P40.minimised.mol

>  <scratch_subdir>  (690) 
/opt/xchem-fragalysis-2/maxwin/BulkDock/SCRATCH/511015/C11879-P40

>  <fragmenstein_runtime>  (690) 
16.437013387680054

>  <fragmenstein_outcome>  (690) 
too moved

>  <fragmenstein_mode>  (690) 
expansion

>  <fragmenstein_error>  (690) 


$$$$
C11879-P9
     RDKit          3D

 44 46  0  0  0  0  0  0  0  0999 V2000
  -14.1476  -20.6448   24.1448 O   0  0  0  0  0  0  0  0  0  0  0  0
  -13.1919  -20.3214   23.4920 C   0  0  0  0  0  0  0  0  0  0  0  0
  -12.4127  -21.0770   22.4991 N   0  0  0  0  0  0  0  0  0  0  0  0
  -12.5020  -22.5084   22.0723 C   0  0  0  0  0  0  0  0  0  0  0  0
  -12.4560  -23.5673   20.5726 C   0  0  0  0  0  0  0  0  0  0  0  0
  -13.2568  -25.0351   19.5840 C   0  0  0  0  0  0  0  0  0  0  0  0
  -13.1861  -25.7275   18.1603 N   0  0  0  0  0  0  0  0  0  0  0  0
  -12.4033  -26.9408   18.0495 C   0  0  0  0  0  0  0  0  0  0  0  0
  -12.1375  -27.3266   16.5902 C   0  0  0  0  0  0  0  0  0  0  0  0
  -13.4311  -27.4889   15.8115 C   0  0  0  0  0  0  0  0  0  0  0  0
  -14.3016  -26.2563   15.9879 C   0  0  0  0  0  0  0  0  0  0  0  0
  -14.4840  -25.8938   17.4673 C   0  0  0  0  0  0  0  0  0  0  0  0
  -12.7197  -18.9220   23.9136 C   0  0  0  0  0  0  0  0  0  0  0  0
  -12.1987  -18.9286   25.2294 C   0  0  0  0  0  0  0  0  0  0  0  0
  -12.0505  -17.7898   26.0494 C   0  0  0  0  0  0  0  0  0  0  0  0
  -12.5785  -16.5839   25.5927 C   0  0  0  0  0  0  0  0  0  0  0  0
  -12.8370  -15.3337   26.2253 C   0  0  0  0  0  0  0  0  0  0  0  0
  -13.5257  -14.5615   25.3191 C   0  0  0  0  0  0  0  0  0  0  0  0
  -13.5794  -15.2540   24.1298 N   0  0  0  0  0  0  0  0  0  0  0  0
  -13.0856  -16.5373   24.2887 C   0  0  0  0  0  0  0  0  0  0  0  0
  -13.1445  -17.6788   23.4194 C   0  0  0  0  0  0  0  0  0  0  0  0
  -11.6172  -20.5159   22.2042 H   0  0  0  0  0  0  0  0  0  0  0  0
  -11.5672  -22.7239   22.5591 H   0  0  0  0  0  0  0  0  0  0  0  0
  -13.3002  -22.8416   22.7451 H   0  0  0  0  0  0  0  0  0  0  0  0
  -11.5518  -24.1185   20.7800 H   0  0  0  0  0  0  0  0  0  0  0  0
  -12.4880  -22.6838   19.9317 H   0  0  0  0  0  0  0  0  0  0  0  0
  -14.0239  -24.5065   19.1214 H   0  0  0  0  0  0  0  0  0  0  0  0
  -13.6869  -25.7960   20.2147 H   0  0  0  0  0  0  0  0  0  0  0  0
  -11.4393  -26.7282   18.4652 H   0  0  0  0  0  0  0  0  0  0  0  0
  -12.8608  -27.7731   18.5960 H   0  0  0  0  0  0  0  0  0  0  0  0
  -11.5206  -26.5529   16.1145 H   0  0  0  0  0  0  0  0  0  0  0  0
  -11.5616  -28.2572   16.5508 H   0  0  0  0  0  0  0  0  0  0  0  0
  -13.2178  -27.6545   14.7500 H   0  0  0  0  0  0  0  0  0  0  0  0
  -13.9692  -28.3728   16.1752 H   0  0  0  0  0  0  0  0  0  0  0  0
  -15.2816  -26.4269   15.5277 H   0  0  0  0  0  0  0  0  0  0  0  0
  -13.8462  -25.4097   15.4592 H   0  0  0  0  0  0  0  0  0  0  0  0
  -15.0874  -26.6556   17.9762 H   0  0  0  0  0  0  0  0  0  0  0  0
  -15.0574  -24.9597   17.4722 H   0  0  0  0  0  0  0  0  0  0  0  0
  -11.9998  -19.8986   25.6914 H   0  0  0  0  0  0  0  0  0  0  0  0
  -11.6946  -17.8966   27.0675 H   0  0  0  0  0  0  0  0  0  0  0  0
  -12.6016  -15.0603   27.2452 H   0  0  0  0  0  0  0  0  0  0  0  0
  -13.9461  -13.5678   25.3968 H   0  0  0  0  0  0  0  0  0  0  0  0
  -14.0370  -14.9227   23.2921 H   0  0  0  0  0  0  0  0  0  0  0  0
  -13.6744  -17.6184   22.4732 H   0  0  0  0  0  0  0  0  0  0  0  0
  1  2  2  0
  2  3  1  0
  3  4  1  0
  4  5  1  0
  5  6  1  0
  6  7  1  0
  7  8  1  0
  8  9  1  0
  9 10  1  0
 10 11  1  0
 11 12  1  0
  2 13  1  0
 13 14  2  0
 14 15  1  0
 15 16  2  0
 16 17  1  0
 17 18  2  0
 18 19  1  0
 19 20  1  0
 20 21  2  0
 12  7  1  0
 21 13  1  0
 20 16  1  0
  3 22  1  0
  4 23  1  0
  4 24  1  0
  5 25  1  0
  5 26  1  0
  6 27  1  0
  6 28  1  0
  8 29  1  0
  8 30  1  0
  9 31  1  0
  9 32  1  0
 10 33  1  0
 10 34  1  0
 11 35  1  0
 11 36  1  0
 12 37  1  0
 12 38  1  0
 14 39  1  0
 15 40  1  0
 17 41  1  0
 18 42  1  0
 19 43  1  0
 21 44  1  0
M  END
>  <Energy>  (691) 
205.48877708810789

>  <compound_id>  (691) 
11879

>  <target_id>  (691) 
1

>  <reference_id>  (691) 
9

>  <inspiration_ids>  (691) 
[40, 9]

>  <energy_score>  (691) 
159.6267075455337

>  <distance_score>  (691) 
12.899204587989843

>  <path>  (691) 
/opt/xchem-fragalysis-2/maxwin/BulkDock/SCRATCH/511015/C11879-P9/C11879-P9.minimised.mol

>  <scratch_subdir>  (691) 
/opt/xchem-fragalysis-2/maxwin/BulkDock/SCRATCH/511015/C11879-P9

>  <fragmenstein_runtime>  (691) 
18.497190952301025

>  <fragmenstein_outcome>  (691) 
too moved

>  <fragmenstein_mode>  (691) 
expansion

>  <fragmenstein_error>  (691) 


$$$$
C11880-P40
     RDKit          3D

 45 47  0  0  0  0  0  0  0  0999 V2000
  -12.8306  -17.0057   25.5655 C   0  0  0  0  0  0  0  0  0  0  0  0
  -11.5359  -17.0454   24.7150 C   0  0  0  0  0  0  0  0  0  0  0  0
  -10.1957  -16.4071   25.9852 C   0  0  0  0  0  0  0  0  0  0  0  0
   -8.7589  -15.4974   25.7288 N   0  0  0  0  0  0  0  0  0  0  0  0
   -8.1333  -14.3557   26.5387 C   0  0  0  0  0  0  0  0  0  0  0  0
   -8.4766  -13.9041   27.5889 O   0  0  0  0  0  0  0  0  0  0  0  0
   -6.6820  -13.3137   25.8291 C   0  0  0  0  0  0  0  0  0  0  0  0
   -6.4823  -12.3940   26.6598 C   0  0  0  0  0  0  0  0  0  0  0  0
   -5.2579  -11.9997   27.2659 C   0  0  0  0  0  0  0  0  0  0  0  0
   -3.8839  -12.1554   26.7876 C   0  0  0  0  0  0  0  0  0  0  0  0
   -2.8420  -12.0741   27.5143 C   0  0  0  0  0  0  0  0  0  0  0  0
   -2.6274  -11.7754   28.8345 C   0  0  0  0  0  0  0  0  0  0  0  0
   -2.0385  -11.3013   29.6973 N   0  0  0  0  0  0  0  0  0  0  0  0
   -2.3858  -11.7189   26.3904 C   0  0  0  0  0  0  0  0  0  0  0  0
   -2.6878  -12.0744   25.0963 N   0  0  0  0  0  0  0  0  0  0  0  0
   -3.9145  -12.2751   24.9336 C   0  0  0  0  0  0  0  0  0  0  0  0
   -5.6424  -12.5509   24.5371 C   0  0  0  0  0  0  0  0  0  0  0  0
  -11.5893  -18.3861   23.7493 N   0  0  0  0  0  0  0  0  0  0  0  0
  -12.6865  -19.3566   24.0056 C   0  0  0  0  0  0  0  0  0  0  0  0
  -12.4426  -20.8682   23.6978 C   0  0  0  0  0  0  0  0  0  0  0  0
  -11.5749  -21.2129   22.4853 C   0  0  0  0  0  0  0  0  0  0  0  0
  -10.9548  -19.9737   21.8787 C   0  0  0  0  0  0  0  0  0  0  0  0
  -10.4745  -19.1224   23.0528 C   0  0  0  0  0  0  0  0  0  0  0  0
  -12.9547  -16.0065   25.9993 H   0  0  0  0  0  0  0  0  0  0  0  0
  -12.7936  -17.7140   26.3981 H   0  0  0  0  0  0  0  0  0  0  0  0
  -13.7309  -17.1793   24.9674 H   0  0  0  0  0  0  0  0  0  0  0  0
  -11.7867  -16.2987   23.9599 H   0  0  0  0  0  0  0  0  0  0  0  0
  -10.7914  -15.7202   26.6026 H   0  0  0  0  0  0  0  0  0  0  0  0
   -9.9013  -17.1525   26.7075 H   0  0  0  0  0  0  0  0  0  0  0  0
   -8.1904  -15.6865   24.9461 H   0  0  0  0  0  0  0  0  0  0  0  0
   -6.7256  -11.5151   25.9583 H   0  0  0  0  0  0  0  0  0  0  0  0
   -5.3225  -11.8989   28.3889 H   0  0  0  0  0  0  0  0  0  0  0  0
   -2.0439  -10.7239   26.4124 H   0  0  0  0  0  0  0  0  0  0  0  0
   -2.1292  -11.5501   24.4332 H   0  0  0  0  0  0  0  0  0  0  0  0
   -5.7995  -12.8718   23.5153 H   0  0  0  0  0  0  0  0  0  0  0  0
  -13.5668  -19.0055   23.4609 H   0  0  0  0  0  0  0  0  0  0  0  0
  -12.9722  -19.3588   25.0611 H   0  0  0  0  0  0  0  0  0  0  0  0
  -11.9591  -21.3091   24.5811 H   0  0  0  0  0  0  0  0  0  0  0  0
  -13.4089  -21.3798   23.6261 H   0  0  0  0  0  0  0  0  0  0  0  0
  -12.0857  -21.8291   21.7458 H   0  0  0  0  0  0  0  0  0  0  0  0
  -10.7633  -21.8533   22.8502 H   0  0  0  0  0  0  0  0  0  0  0  0
  -11.6355  -19.3955   21.2516 H   0  0  0  0  0  0  0  0  0  0  0  0
  -10.1069  -20.2645   21.2476 H   0  0  0  0  0  0  0  0  0  0  0  0
   -9.6145  -18.5796   22.6971 H   0  0  0  0  0  0  0  0  0  0  0  0
   -9.9991  -19.8540   23.7030 H   0  0  0  0  0  0  0  0  0  0  0  0
  1  2  1  0
  2  3  1  0
  3  4  1  0
  4  5  1  0
  5  6  2  0
  5  7  1  0
  7  8  2  0
  8  9  1  0
  9 10  2  0
 10 11  1  0
 11 12  1  0
 12 13  3  0
 11 14  2  0
 14 15  1  0
 15 16  1  0
 16 17  2  0
  2 18  1  0
 18 19  1  0
 19 20  1  0
 20 21  1  0
 21 22  1  0
 22 23  1  0
 17  7  1  0
 23 18  1  0
 16 10  1  0
  1 24  1  0
  1 25  1  0
  1 26  1  0
  2 27  1  0
  3 28  1  0
  3 29  1  0
  4 30  1  0
  8 31  1  0
  9 32  1  0
 14 33  1  0
 15 34  1  0
 17 35  1  0
 19 36  1  0
 19 37  1  0
 20 38  1  0
 20 39  1  0
 21 40  1  0
 21 41  1  0
 22 42  1  0
 22 43  1  0
 23 44  1  0
 23 45  1  0
M  END
>  <Energy>  (692) 
672.9710086621742

>  <compound_id>  (692) 
11880

>  <target_id>  (692) 
1

>  <reference_id>  (692) 
40

>  <inspiration_ids>  (692) 
[40, 9]

>  <energy_score>  (692) 
578.8277588618176

>  <distance_score>  (692) 
11.12131595449717

>  <path>  (692) 
/opt/xchem-fragalysis-2/maxwin/BulkDock/SCRATCH/511015/C11880-P40/C11880-P40.minimised.mol

>  <scratch_subdir>  (692) 
/opt/xchem-fragalysis-2/maxwin/BulkDock/SCRATCH/511015/C11880-P40

>  <fragmenstein_runtime>  (692) 
10.970958709716797

>  <fragmenstein_outcome>  (692) 
too moved

>  <fragmenstein_mode>  (692) 
expansion

>  <fragmenstein_error>  (692) 


$$$$
C11880-P9
     RDKit          3D

 45 47  0  0  0  0  0  0  0  0999 V2000
   -6.8371  -18.6654   23.6112 C   0  0  0  0  0  0  0  0  0  0  0  0
   -7.4017  -16.8330   23.6162 C   0  0  0  0  0  0  0  0  0  0  0  0
   -8.1266  -15.4057   25.1243 C   0  0  0  0  0  0  0  0  0  0  0  0
   -7.7146  -14.3158   26.7173 N   0  0  0  0  0  0  0  0  0  0  0  0
   -6.8165  -12.8205   26.9088 C   0  0  0  0  0  0  0  0  0  0  0  0
   -6.4046  -12.1537   25.9892 O   0  0  0  0  0  0  0  0  0  0  0  0
   -6.1060  -12.0780   28.6692 C   0  0  0  0  0  0  0  0  0  0  0  0
   -5.7055  -13.1441   29.9981 C   0  0  0  0  0  0  0  0  0  0  0  0
   -5.9944  -12.7726   31.4632 C   0  0  0  0  0  0  0  0  0  0  0  0
   -6.4398  -11.4235   31.9711 C   0  0  0  0  0  0  0  0  0  0  0  0
   -6.7366  -10.9068   33.2700 C   0  0  0  0  0  0  0  0  0  0  0  0
   -6.6563  -11.6241   34.5023 C   0  0  0  0  0  0  0  0  0  0  0  0
   -6.5590  -12.2094   35.4995 N   0  0  0  0  0  0  0  0  0  0  0  0
   -7.0650   -9.5685   33.1552 C   0  0  0  0  0  0  0  0  0  0  0  0
   -7.0525   -9.2347   31.8289 N   0  0  0  0  0  0  0  0  0  0  0  0
   -6.7313  -10.3439   31.0831 C   0  0  0  0  0  0  0  0  0  0  0  0
   -6.5936  -10.4693   29.5370 C   0  0  0  0  0  0  0  0  0  0  0  0
   -7.9972  -17.5684   22.0524 N   0  0  0  0  0  0  0  0  0  0  0  0
   -8.8636  -18.8277   21.9361 C   0  0  0  0  0  0  0  0  0  0  0  0
   -8.2580  -20.0346   21.1823 C   0  0  0  0  0  0  0  0  0  0  0  0
   -7.7996  -19.6703   19.7749 C   0  0  0  0  0  0  0  0  0  0  0  0
   -7.8157  -18.1711   19.5558 C   0  0  0  0  0  0  0  0  0  0  0  0
   -7.2862  -17.3943   20.7849 C   0  0  0  0  0  0  0  0  0  0  0  0
   -7.6006  -19.4422   23.6455 H   0  0  0  0  0  0  0  0  0  0  0  0
   -6.1858  -18.9896   24.4183 H   0  0  0  0  0  0  0  0  0  0  0  0
   -6.2262  -18.8390   22.7212 H   0  0  0  0  0  0  0  0  0  0  0  0
   -6.3701  -17.0369   23.7397 H   0  0  0  0  0  0  0  0  0  0  0  0
   -8.1698  -16.1255   25.9267 H   0  0  0  0  0  0  0  0  0  0  0  0
   -9.1754  -15.6119   25.2451 H   0  0  0  0  0  0  0  0  0  0  0  0
   -8.0250  -14.6389   27.6414 H   0  0  0  0  0  0  0  0  0  0  0  0
   -5.9766  -14.1999   29.8697 H   0  0  0  0  0  0  0  0  0  0  0  0
   -5.9596  -13.5891   32.1910 H   0  0  0  0  0  0  0  0  0  0  0  0
   -7.3264   -8.8311   33.9017 H   0  0  0  0  0  0  0  0  0  0  0  0
   -7.2171   -8.3160   31.4327 H   0  0  0  0  0  0  0  0  0  0  0  0
   -6.9734   -9.5725   29.0010 H   0  0  0  0  0  0  0  0  0  0  0  0
   -9.3315  -19.1433   22.8737 H   0  0  0  0  0  0  0  0  0  0  0  0
   -9.7327  -18.6056   21.3026 H   0  0  0  0  0  0  0  0  0  0  0  0
   -9.0228  -20.8180   21.1214 H   0  0  0  0  0  0  0  0  0  0  0  0
   -7.4231  -20.4806   21.7309 H   0  0  0  0  0  0  0  0  0  0  0  0
   -6.7849  -20.0552   19.6170 H   0  0  0  0  0  0  0  0  0  0  0  0
   -8.4338  -20.1504   19.0234 H   0  0  0  0  0  0  0  0  0  0  0  0
   -7.2077  -17.9231   18.6775 H   0  0  0  0  0  0  0  0  0  0  0  0
   -8.8354  -17.8377   19.3232 H   0  0  0  0  0  0  0  0  0  0  0  0
   -6.2357  -17.6570   20.9070 H   0  0  0  0  0  0  0  0  0  0  0  0
   -7.3950  -16.3625   20.4780 H   0  0  0  0  0  0  0  0  0  0  0  0
  1  2  1  0
  2  3  1  0
  3  4  1  0
  4  5  1  0
  5  6  2  0
  5  7  1  0
  7  8  2  0
  8  9  1  0
  9 10  2  0
 10 11  1  0
 11 12  1  0
 12 13  3  0
 11 14  2  0
 14 15  1  0
 15 16  1  0
 16 17  2  0
  2 18  1  0
 18 19  1  0
 19 20  1  0
 20 21  1  0
 21 22  1  0
 22 23  1  0
 17  7  1  0
 23 18  1  0
 16 10  1  0
  1 24  1  0
  1 25  1  0
  1 26  1  0
  2 27  1  0
  3 28  1  0
  3 29  1  0
  4 30  1  0
  8 31  1  0
  9 32  1  0
 14 33  1  0
 15 34  1  0
 17 35  1  0
 19 36  1  0
 19 37  1  0
 20 38  1  0
 20 39  1  0
 21 40  1  0
 21 41  1  0
 22 42  1  0
 22 43  1  0
 23 44  1  0
 23 45  1  0
M  END
>  <Energy>  (693) 
766.21948279634739

>  <compound_id>  (693) 
11880

>  <target_id>  (693) 
1

>  <reference_id>  (693) 
9

>  <inspiration_ids>  (693) 
[40, 9]

>  <energy_score>  (693) 
672.076232995994

>  <distance_score>  (693) 
11.35113294309985

>  <path>  (693) 
/opt/xchem-fragalysis-2/maxwin/BulkDock/SCRATCH/511015/C11880-P9/C11880-P9.minimised.mol

>  <scratch_subdir>  (693) 
/opt/xchem-fragalysis-2/maxwin/BulkDock/SCRATCH/511015/C11880-P9

>  <fragmenstein_runtime>  (693) 
19.26108407974243

>  <fragmenstein_outcome>  (693) 
too moved

>  <fragmenstein_mode>  (693) 
expansion

>  <fragmenstein_error>  (693) 


$$$$
C11881-P40
     RDKit          3D

 47 49  0  0  0  0  0  0  0  0999 V2000
   -5.7663  -11.5955   24.4258 C   0  0  0  0  0  0  0  0  0  0  0  0
   -3.7812  -11.2865   24.2180 C   0  0  0  0  0  0  0  0  0  0  0  0
   -4.5670  -13.3855   23.5468 C   0  0  0  0  0  0  0  0  0  0  0  0
   -4.2699  -15.3904   22.6825 N   0  0  0  0  0  0  0  0  0  0  0  0
   -5.2879  -16.5376   21.2562 C   0  0  0  0  0  0  0  0  0  0  0  0
   -6.4274  -16.1754   20.6981 O   0  0  0  0  0  0  0  0  0  0  0  0
   -5.0178  -17.8392   20.8016 C   0  0  0  0  0  0  0  0  0  0  0  0
   -5.1308  -18.1129   19.3961 C   0  0  0  0  0  0  0  0  0  0  0  0
   -6.1179  -18.8865   18.7549 C   0  0  0  0  0  0  0  0  0  0  0  0
   -7.1317  -19.4613   19.5072 C   0  0  0  0  0  0  0  0  0  0  0  0
   -8.3783  -20.0316   19.2066 C   0  0  0  0  0  0  0  0  0  0  0  0
   -8.9979  -20.3578   20.3943 C   0  0  0  0  0  0  0  0  0  0  0  0
   -8.1084  -20.1086   21.3888 N   0  0  0  0  0  0  0  0  0  0  0  0
   -8.3053  -20.5718   22.7347 C   0  0  0  0  0  0  0  0  0  0  0  0
   -7.0607  -19.3949   20.8805 C   0  0  0  0  0  0  0  0  0  0  0  0
   -6.1004  -18.5711   21.4836 C   0  0  0  0  0  0  0  0  0  0  0  0
   -2.9567   -9.1899   24.7245 N   0  0  0  0  0  0  0  0  0  0  0  0
   -2.5623   -7.7986   26.3016 C   0  0  0  0  0  0  0  0  0  0  0  0
   -0.9969   -7.9206   27.7643 C   0  0  0  0  0  0  0  0  0  0  0  0
   -1.4452   -7.4101   29.0621 C   0  0  0  0  0  0  0  0  0  0  0  0
   -2.7214   -7.3334   28.2997 C   0  0  0  0  0  0  0  0  0  0  0  0
   -3.4083   -8.2538   26.5786 C   0  0  0  0  0  0  0  0  0  0  0  0
   -6.3890  -10.8727   24.9780 H   0  0  0  0  0  0  0  0  0  0  0  0
   -6.0193  -12.3855   25.1044 H   0  0  0  0  0  0  0  0  0  0  0  0
   -6.2908  -11.7172   23.4666 H   0  0  0  0  0  0  0  0  0  0  0  0
   -3.6493  -10.8182   23.2600 H   0  0  0  0  0  0  0  0  0  0  0  0
   -5.6344  -13.5099   23.4776 H   0  0  0  0  0  0  0  0  0  0  0  0
   -3.6436  -13.8551   23.7005 H   0  0  0  0  0  0  0  0  0  0  0  0
   -3.4972  -15.8877   23.0121 H   0  0  0  0  0  0  0  0  0  0  0  0
   -4.5943  -17.4932   18.6742 H   0  0  0  0  0  0  0  0  0  0  0  0
   -6.1766  -18.8614   17.6795 H   0  0  0  0  0  0  0  0  0  0  0  0
   -8.7550  -20.1792   18.2106 H   0  0  0  0  0  0  0  0  0  0  0  0
   -9.9401  -20.8214   20.6431 H   0  0  0  0  0  0  0  0  0  0  0  0
   -7.4360  -20.3228   23.3464 H   0  0  0  0  0  0  0  0  0  0  0  0
   -9.2010  -20.0950   23.1404 H   0  0  0  0  0  0  0  0  0  0  0  0
   -8.4283  -21.6571   22.7169 H   0  0  0  0  0  0  0  0  0  0  0  0
   -6.3110  -18.3061   22.5246 H   0  0  0  0  0  0  0  0  0  0  0  0
   -2.9057   -6.7160   26.3606 H   0  0  0  0  0  0  0  0  0  0  0  0
   -2.1678   -7.2117   25.3213 H   0  0  0  0  0  0  0  0  0  0  0  0
    0.0474   -7.5833   27.6874 H   0  0  0  0  0  0  0  0  0  0  0  0
   -0.7045   -8.8897   28.2780 H   0  0  0  0  0  0  0  0  0  0  0  0
   -1.2496   -8.0632   29.9138 H   0  0  0  0  0  0  0  0  0  0  0  0
   -1.0144   -6.4565   29.3981 H   0  0  0  0  0  0  0  0  0  0  0  0
   -3.4984   -7.4310   29.0372 H   0  0  0  0  0  0  0  0  0  0  0  0
   -2.5159   -6.3327   28.0643 H   0  0  0  0  0  0  0  0  0  0  0  0
   -4.6075   -8.4740   26.7488 H   0  0  0  0  0  0  0  0  0  0  0  0
   -4.3119   -7.8429   27.2966 H   0  0  0  0  0  0  0  0  0  0  0  0
  1  2  1  0
  2  3  1  0
  3  4  1  0
  4  5  1  0
  5  6  2  0
  5  7  1  0
  7  8  2  0
  8  9  1  0
  9 10  2  0
 10 11  1  0
 11 12  2  0
 12 13  1  0
 13 14  1  0
 13 15  1  0
 15 16  2  0
  2 17  1  0
 17 18  1  0
 18 19  1  0
 19 20  1  0
 20 21  1  0
 21 22  1  0
 16  7  1  0
 22 17  1  0
 15 10  1  0
  1 23  1  0
  1 24  1  0
  1 25  1  0
  2 26  1  0
  3 27  1  0
  3 28  1  0
  4 29  1  0
  8 30  1  0
  9 31  1  0
 11 32  1  0
 12 33  1  0
 14 34  1  0
 14 35  1  0
 14 36  1  0
 16 37  1  0
 18 38  1  0
 18 39  1  0
 19 40  1  0
 19 41  1  0
 20 42  1  0
 20 43  1  0
 21 44  1  0
 21 45  1  0
 22 46  1  0
 22 47  1  0
M  END
>  <Energy>  (694) 
2241.0215690189643

>  <compound_id>  (694) 
11881

>  <target_id>  (694) 
1

>  <reference_id>  (694) 
40

>  <inspiration_ids>  (694) 
[40, 9]

>  <energy_score>  (694) 
2151.6672138160025

>  <distance_score>  (694) 
9.397332349188263

>  <path>  (694) 
/opt/xchem-fragalysis-2/maxwin/BulkDock/SCRATCH/511015/C11881-P40/C11881-P40.minimised.mol

>  <scratch_subdir>  (694) 
/opt/xchem-fragalysis-2/maxwin/BulkDock/SCRATCH/511015/C11881-P40

>  <fragmenstein_runtime>  (694) 
22.040411949157715

>  <fragmenstein_outcome>  (694) 
too moved

>  <fragmenstein_mode>  (694) 
expansion

>  <fragmenstein_error>  (694) 


$$$$
C11881-P9
     RDKit          3D

 47 49  0  0  0  0  0  0  0  0999 V2000
    1.4356  -16.5688   17.8090 C   0  0  0  0  0  0  0  0  0  0  0  0
    1.5343  -16.8817   19.3147 C   0  0  0  0  0  0  0  0  0  0  0  0
    2.1765  -18.4321   19.3835 C   0  0  0  0  0  0  0  0  0  0  0  0
    1.6474  -19.6147   18.6663 N   0  0  0  0  0  0  0  0  0  0  0  0
    1.5308  -19.8930   17.2589 C   0  0  0  0  0  0  0  0  0  0  0  0
    1.9042  -19.2729   16.3071 O   0  0  0  0  0  0  0  0  0  0  0  0
    0.7864  -21.1951   16.9886 C   0  0  0  0  0  0  0  0  0  0  0  0
    1.1116  -22.3482   17.7121 C   0  0  0  0  0  0  0  0  0  0  0  0
    0.4856  -23.5755   17.4354 C   0  0  0  0  0  0  0  0  0  0  0  0
   -0.4579  -23.6681   16.3902 C   0  0  0  0  0  0  0  0  0  0  0  0
   -1.1929  -24.7460   15.8163 C   0  0  0  0  0  0  0  0  0  0  0  0
   -1.9147  -24.2487   14.7564 C   0  0  0  0  0  0  0  0  0  0  0  0
   -1.6599  -22.9050   14.6749 N   0  0  0  0  0  0  0  0  0  0  0  0
   -2.0906  -22.0557   13.5912 C   0  0  0  0  0  0  0  0  0  0  0  0
   -0.7836  -22.5151   15.6713 C   0  0  0  0  0  0  0  0  0  0  0  0
   -0.1859  -21.2648   15.9632 C   0  0  0  0  0  0  0  0  0  0  0  0
    0.3624  -16.0293   20.2698 N   0  0  0  0  0  0  0  0  0  0  0  0
    0.9377  -15.4169   21.2809 C   0  0  0  0  0  0  0  0  0  0  0  0
   -0.0754  -14.2428   22.2980 C   0  0  0  0  0  0  0  0  0  0  0  0
   -0.1941  -13.3955   23.4446 C   0  0  0  0  0  0  0  0  0  0  0  0
   -1.2101  -14.7704   22.9968 C   0  0  0  0  0  0  0  0  0  0  0  0
   -1.1882  -15.8648   21.2348 C   0  0  0  0  0  0  0  0  0  0  0  0
    2.4223  -16.6541   17.3375 H   0  0  0  0  0  0  0  0  0  0  0  0
    0.7942  -17.3071   17.3439 H   0  0  0  0  0  0  0  0  0  0  0  0
    1.0730  -15.5694   17.5725 H   0  0  0  0  0  0  0  0  0  0  0  0
    2.4444  -16.3071   19.5336 H   0  0  0  0  0  0  0  0  0  0  0  0
    2.1890  -18.8015   20.4060 H   0  0  0  0  0  0  0  0  0  0  0  0
    3.2194  -18.3437   19.0538 H   0  0  0  0  0  0  0  0  0  0  0  0
    1.1405  -20.3219   19.1861 H   0  0  0  0  0  0  0  0  0  0  0  0
    1.8892  -22.3237   18.4711 H   0  0  0  0  0  0  0  0  0  0  0  0
    0.7642  -24.4658   17.9921 H   0  0  0  0  0  0  0  0  0  0  0  0
   -1.1692  -25.7814   16.1283 H   0  0  0  0  0  0  0  0  0  0  0  0
   -2.5681  -24.7379   14.0463 H   0  0  0  0  0  0  0  0  0  0  0  0
   -1.2028  -21.5808   13.1610 H   0  0  0  0  0  0  0  0  0  0  0  0
   -2.5570  -22.6535   12.8063 H   0  0  0  0  0  0  0  0  0  0  0  0
   -2.7468  -21.2847   13.9888 H   0  0  0  0  0  0  0  0  0  0  0  0
   -0.4227  -20.3792   15.3791 H   0  0  0  0  0  0  0  0  0  0  0  0
    1.9596  -15.2314   20.8590 H   0  0  0  0  0  0  0  0  0  0  0  0
    0.5590  -16.3680   21.5161 H   0  0  0  0  0  0  0  0  0  0  0  0
   -0.5800  -13.5584   21.6569 H   0  0  0  0  0  0  0  0  0  0  0  0
    0.6978  -14.4601   23.1558 H   0  0  0  0  0  0  0  0  0  0  0  0
   -0.8345  -12.9953   24.2131 H   0  0  0  0  0  0  0  0  0  0  0  0
    0.0267  -12.4061   23.0221 H   0  0  0  0  0  0  0  0  0  0  0  0
   -2.1907  -14.6503   23.5628 H   0  0  0  0  0  0  0  0  0  0  0  0
   -1.0807  -15.4223   23.7381 H   0  0  0  0  0  0  0  0  0  0  0  0
   -1.9677  -15.4278   20.5658 H   0  0  0  0  0  0  0  0  0  0  0  0
   -1.5953  -16.8506   21.2983 H   0  0  0  0  0  0  0  0  0  0  0  0
  1  2  1  0
  2  3  1  0
  3  4  1  0
  4  5  1  0
  5  6  2  0
  5  7  1  0
  7  8  2  0
  8  9  1  0
  9 10  2  0
 10 11  1  0
 11 12  2  0
 12 13  1  0
 13 14  1  0
 13 15  1  0
 15 16  2  0
  2 17  1  0
 17 18  1  0
 18 19  1  0
 19 20  1  0
 20 21  1  0
 21 22  1  0
 16  7  1  0
 22 17  1  0
 15 10  1  0
  1 23  1  0
  1 24  1  0
  1 25  1  0
  2 26  1  0
  3 27  1  0
  3 28  1  0
  4 29  1  0
  8 30  1  0
  9 31  1  0
 11 32  1  0
 12 33  1  0
 14 34  1  0
 14 35  1  0
 14 36  1  0
 16 37  1  0
 18 38  1  0
 18 39  1  0
 19 40  1  0
 19 41  1  0
 20 42  1  0
 20 43  1  0
 21 44  1  0
 21 45  1  0
 22 46  1  0
 22 47  1  0
M  END
>  <Energy>  (695) 
656.5337788844306

>  <compound_id>  (695) 
11881

>  <target_id>  (695) 
1

>  <reference_id>  (695) 
9

>  <inspiration_ids>  (695) 
[40, 9]

>  <energy_score>  (695) 
567.1794236814494

>  <distance_score>  (695) 
12.165003587453656

>  <path>  (695) 
/opt/xchem-fragalysis-2/maxwin/BulkDock/SCRATCH/511015/C11881-P9/C11881-P9.minimised.mol

>  <scratch_subdir>  (695) 
/opt/xchem-fragalysis-2/maxwin/BulkDock/SCRATCH/511015/C11881-P9

>  <fragmenstein_runtime>  (695) 
29.08905029296875

>  <fragmenstein_outcome>  (695) 
too moved

>  <fragmenstein_mode>  (695) 
expansion

>  <fragmenstein_error>  (695) 


$$$$
C11885-P40
     RDKit          3D

 47 49  0  0  0  0  0  0  0  0999 V2000
   -6.8157  -18.3155   21.4623 C   0  0  0  0  0  0  0  0  0  0  0  0
   -5.6955  -17.9466   20.4740 C   0  0  0  0  0  0  0  0  0  0  0  0
   -4.4520  -16.5655   21.3522 C   0  0  0  0  0  0  0  0  0  0  0  0
   -4.3455  -15.4557   23.0012 N   0  0  0  0  0  0  0  0  0  0  0  0
   -3.1266  -14.4115   23.5809 C   0  0  0  0  0  0  0  0  0  0  0  0
   -2.0067  -14.1778   23.1428 O   0  0  0  0  0  0  0  0  0  0  0  0
   -3.5707  -13.7833   24.8264 C   0  0  0  0  0  0  0  0  0  0  0  0
   -4.5681  -12.8394   24.9710 C   0  0  0  0  0  0  0  0  0  0  0  0
   -4.7433  -12.6067   26.3086 N   0  0  0  0  0  0  0  0  0  0  0  0
   -3.8294  -13.3227   27.0474 C   0  0  0  0  0  0  0  0  0  0  0  0
   -3.7203  -13.4830   28.4383 C   0  0  0  0  0  0  0  0  0  0  0  0
   -2.8721  -14.5033   28.8837 C   0  0  0  0  0  0  0  0  0  0  0  0
   -2.7802  -14.8847   30.5592 Cl  0  0  0  0  0  0  0  0  0  0  0  0
   -2.1056  -15.2579   27.9949 C   0  0  0  0  0  0  0  0  0  0  0  0
   -2.1390  -14.9945   26.6203 C   0  0  0  0  0  0  0  0  0  0  0  0
   -3.0631  -14.0510   26.1340 C   0  0  0  0  0  0  0  0  0  0  0  0
   -6.2862  -18.6681   18.7346 C   0  0  0  0  0  0  0  0  0  0  0  0
   -7.2399  -19.9602   17.9043 N   0  0  0  0  0  0  0  0  0  0  0  0
   -8.6441  -20.4258   17.7832 C   0  0  0  0  0  0  0  0  0  0  0  0
   -9.3447  -21.2871   16.3155 C   0  0  0  0  0  0  0  0  0  0  0  0
   -9.0102  -22.2812   15.2405 C   0  0  0  0  0  0  0  0  0  0  0  0
   -7.5613  -22.2384   15.4346 C   0  0  0  0  0  0  0  0  0  0  0  0
   -6.7322  -21.0343   16.9446 C   0  0  0  0  0  0  0  0  0  0  0  0
   -6.4558  -18.6072   22.4457 H   0  0  0  0  0  0  0  0  0  0  0  0
   -7.3747  -19.1397   21.0482 H   0  0  0  0  0  0  0  0  0  0  0  0
   -7.4878  -17.4859   21.6518 H   0  0  0  0  0  0  0  0  0  0  0  0
   -5.0348  -18.8167   20.5203 H   0  0  0  0  0  0  0  0  0  0  0  0
   -4.7121  -17.2695   22.0838 H   0  0  0  0  0  0  0  0  0  0  0  0
   -3.4678  -16.6685   20.8813 H   0  0  0  0  0  0  0  0  0  0  0  0
   -5.1962  -15.3428   23.5632 H   0  0  0  0  0  0  0  0  0  0  0  0
   -5.1759  -12.3351   24.2328 H   0  0  0  0  0  0  0  0  0  0  0  0
   -5.4310  -11.9862   26.7222 H   0  0  0  0  0  0  0  0  0  0  0  0
   -4.3529  -12.9233   29.1176 H   0  0  0  0  0  0  0  0  0  0  0  0
   -1.4536  -16.0471   28.3618 H   0  0  0  0  0  0  0  0  0  0  0  0
   -1.5414  -15.5849   25.9317 H   0  0  0  0  0  0  0  0  0  0  0  0
   -5.3115  -18.8348   18.2570 H   0  0  0  0  0  0  0  0  0  0  0  0
   -6.7110  -17.7931   18.2440 H   0  0  0  0  0  0  0  0  0  0  0  0
   -8.9347  -20.8918   18.7081 H   0  0  0  0  0  0  0  0  0  0  0  0
   -9.3104  -19.5933   17.6837 H   0  0  0  0  0  0  0  0  0  0  0  0
   -9.6584  -22.1023   16.8298 H   0  0  0  0  0  0  0  0  0  0  0  0
   -9.7849  -20.5330   15.6967 H   0  0  0  0  0  0  0  0  0  0  0  0
   -9.4094  -23.2979   15.3224 H   0  0  0  0  0  0  0  0  0  0  0  0
   -9.3538  -21.9800   14.2438 H   0  0  0  0  0  0  0  0  0  0  0  0
   -7.3438  -21.8897   14.3943 H   0  0  0  0  0  0  0  0  0  0  0  0
   -7.2365  -23.1830   15.6883 H   0  0  0  0  0  0  0  0  0  0  0  0
   -6.5229  -21.8435   17.5194 H   0  0  0  0  0  0  0  0  0  0  0  0
   -5.7765  -20.5047   16.7399 H   0  0  0  0  0  0  0  0  0  0  0  0
  1  2  1  0
  2  3  1  0
  3  4  1  0
  4  5  1  0
  5  6  2  0
  5  7  1  0
  7  8  2  0
  8  9  1  0
  9 10  1  0
 10 11  2  0
 11 12  1  0
 12 13  1  0
 12 14  2  0
 14 15  1  0
 15 16  2  0
  2 17  1  0
 17 18  1  0
 18 19  1  0
 19 20  1  0
 20 21  1  0
 21 22  1  0
 22 23  1  0
 16  7  1  0
 23 18  1  0
 16 10  1  0
  1 24  1  0
  1 25  1  0
  1 26  1  0
  2 27  1  0
  3 28  1  0
  3 29  1  0
  4 30  1  0
  8 31  1  0
  9 32  1  0
 11 33  1  0
 14 34  1  0
 15 35  1  0
 17 36  1  0
 17 37  1  0
 19 38  1  0
 19 39  1  0
 20 40  1  0
 20 41  1  0
 21 42  1  0
 21 43  1  0
 22 44  1  0
 22 45  1  0
 23 46  1  0
 23 47  1  0
M  END
>  <Energy>  (696) 
595.52768098952254

>  <compound_id>  (696) 
11885

>  <target_id>  (696) 
1

>  <reference_id>  (696) 
40

>  <inspiration_ids>  (696) 
[40, 9]

>  <energy_score>  (696) 
544.8571245607208

>  <distance_score>  (696) 
10.024391695676929

>  <path>  (696) 
/opt/xchem-fragalysis-2/maxwin/BulkDock/SCRATCH/511015/C11885-P40/C11885-P40.minimised.mol

>  <scratch_subdir>  (696) 
/opt/xchem-fragalysis-2/maxwin/BulkDock/SCRATCH/511015/C11885-P40

>  <fragmenstein_runtime>  (696) 
19.488440990447998

>  <fragmenstein_outcome>  (696) 
too moved

>  <fragmenstein_mode>  (696) 
expansion

>  <fragmenstein_error>  (696) 


$$$$
C11885-P9
     RDKit          3D

 47 49  0  0  0  0  0  0  0  0999 V2000
   -4.4876  -19.8169   20.1992 C   0  0  0  0  0  0  0  0  0  0  0  0
   -5.1851  -18.4466   20.2631 C   0  0  0  0  0  0  0  0  0  0  0  0
   -5.5234  -17.7058   22.0156 C   0  0  0  0  0  0  0  0  0  0  0  0
   -4.4627  -16.1699   22.3175 N   0  0  0  0  0  0  0  0  0  0  0  0
   -3.5627  -15.4848   23.8616 C   0  0  0  0  0  0  0  0  0  0  0  0
   -3.4182  -15.9749   24.9918 O   0  0  0  0  0  0  0  0  0  0  0  0
   -2.6519  -14.0007   23.7461 C   0  0  0  0  0  0  0  0  0  0  0  0
   -1.2890  -14.0485   24.0809 C   0  0  0  0  0  0  0  0  0  0  0  0
   -0.6698  -13.0687   23.3512 N   0  0  0  0  0  0  0  0  0  0  0  0
   -1.6236  -12.3109   22.7251 C   0  0  0  0  0  0  0  0  0  0  0  0
   -1.5417  -11.4556   21.6295 C   0  0  0  0  0  0  0  0  0  0  0  0
   -2.6999  -10.7386   21.3043 C   0  0  0  0  0  0  0  0  0  0  0  0
   -2.6644   -9.6678   19.9518 Cl  0  0  0  0  0  0  0  0  0  0  0  0
   -3.8301  -10.7743   22.1105 C   0  0  0  0  0  0  0  0  0  0  0  0
   -3.9129  -11.7078   23.1472 C   0  0  0  0  0  0  0  0  0  0  0  0
   -2.8307  -12.6006   23.3638 C   0  0  0  0  0  0  0  0  0  0  0  0
   -6.0312  -18.3818   18.9031 C   0  0  0  0  0  0  0  0  0  0  0  0
   -5.2167  -18.0367   17.6398 N   0  0  0  0  0  0  0  0  0  0  0  0
   -5.9108  -17.2948   16.5727 C   0  0  0  0  0  0  0  0  0  0  0  0
   -5.4296  -17.4558   15.1208 C   0  0  0  0  0  0  0  0  0  0  0  0
   -3.9309  -17.5897   15.0797 C   0  0  0  0  0  0  0  0  0  0  0  0
   -3.5491  -18.8541   15.8152 C   0  0  0  0  0  0  0  0  0  0  0  0
   -4.3243  -19.0833   17.1242 C   0  0  0  0  0  0  0  0  0  0  0  0
   -4.9603  -20.5941   20.7726 H   0  0  0  0  0  0  0  0  0  0  0  0
   -3.4121  -19.7961   20.3856 H   0  0  0  0  0  0  0  0  0  0  0  0
   -4.4053  -20.1034   19.1872 H   0  0  0  0  0  0  0  0  0  0  0  0
   -4.3579  -17.7766   19.9659 H   0  0  0  0  0  0  0  0  0  0  0  0
   -6.0197  -18.2163   22.8502 H   0  0  0  0  0  0  0  0  0  0  0  0
   -6.4508  -17.3151   21.5547 H   0  0  0  0  0  0  0  0  0  0  0  0
   -4.4795  -15.5615   21.6383 H   0  0  0  0  0  0  0  0  0  0  0  0
   -0.7038  -14.8263   24.5482 H   0  0  0  0  0  0  0  0  0  0  0  0
    0.3275  -12.9672   23.2208 H   0  0  0  0  0  0  0  0  0  0  0  0
   -0.6188  -11.3423   21.0716 H   0  0  0  0  0  0  0  0  0  0  0  0
   -4.6920  -10.1577   21.8756 H   0  0  0  0  0  0  0  0  0  0  0  0
   -4.8769  -11.8636   23.6169 H   0  0  0  0  0  0  0  0  0  0  0  0
   -6.7926  -17.6453   19.0591 H   0  0  0  0  0  0  0  0  0  0  0  0
   -6.5609  -19.3173   18.7170 H   0  0  0  0  0  0  0  0  0  0  0  0
   -5.6954  -16.2371   16.7558 H   0  0  0  0  0  0  0  0  0  0  0  0
   -6.9980  -17.4056   16.6258 H   0  0  0  0  0  0  0  0  0  0  0  0
   -5.7465  -16.5854   14.5343 H   0  0  0  0  0  0  0  0  0  0  0  0
   -5.8344  -18.3312   14.6254 H   0  0  0  0  0  0  0  0  0  0  0  0
   -3.4574  -16.7192   15.5497 H   0  0  0  0  0  0  0  0  0  0  0  0
   -3.5713  -17.6312   14.0457 H   0  0  0  0  0  0  0  0  0  0  0  0
   -2.4712  -18.8269   16.0192 H   0  0  0  0  0  0  0  0  0  0  0  0
   -3.7053  -19.7159   15.1549 H   0  0  0  0  0  0  0  0  0  0  0  0
   -4.8894  -20.0045   17.0056 H   0  0  0  0  0  0  0  0  0  0  0  0
   -3.5176  -19.2387   17.8433 H   0  0  0  0  0  0  0  0  0  0  0  0
  1  2  1  0
  2  3  1  0
  3  4  1  0
  4  5  1  0
  5  6  2  0
  5  7  1  0
  7  8  2  0
  8  9  1  0
  9 10  1  0
 10 11  2  0
 11 12  1  0
 12 13  1  0
 12 14  2  0
 14 15  1  0
 15 16  2  0
  2 17  1  0
 17 18  1  0
 18 19  1  0
 19 20  1  0
 20 21  1  0
 21 22  1  0
 22 23  1  0
 16  7  1  0
 23 18  1  0
 16 10  1  0
  1 24  1  0
  1 25  1  0
  1 26  1  0
  2 27  1  0
  3 28  1  0
  3 29  1  0
  4 30  1  0
  8 31  1  0
  9 32  1  0
 11 33  1  0
 14 34  1  0
 15 35  1  0
 17 36  1  0
 17 37  1  0
 19 38  1  0
 19 39  1  0
 20 40  1  0
 20 41  1  0
 21 42  1  0
 21 43  1  0
 22 44  1  0
 22 45  1  0
 23 46  1  0
 23 47  1  0
M  END
>  <Energy>  (697) 
303.55884081725952

>  <compound_id>  (697) 
11885

>  <target_id>  (697) 
1

>  <reference_id>  (697) 
9

>  <inspiration_ids>  (697) 
[40, 9]

>  <energy_score>  (697) 
252.88828438844916

>  <distance_score>  (697) 
11.165237363200363

>  <path>  (697) 
/opt/xchem-fragalysis-2/maxwin/BulkDock/SCRATCH/511015/C11885-P9/C11885-P9.minimised.mol

>  <scratch_subdir>  (697) 
/opt/xchem-fragalysis-2/maxwin/BulkDock/SCRATCH/511015/C11885-P9

>  <fragmenstein_runtime>  (697) 
18.686023712158203

>  <fragmenstein_outcome>  (697) 
too moved

>  <fragmenstein_mode>  (697) 
expansion

>  <fragmenstein_error>  (697) 


$$$$
C11888-P40
     RDKit          3D

 47 49  0  0  0  0  0  0  0  0999 V2000
   -6.1266  -18.4735   20.8192 C   0  0  0  0  0  0  0  0  0  0  0  0
   -7.0048  -18.2868   22.0578 C   0  0  0  0  0  0  0  0  0  0  0  0
   -6.4138  -17.1584   23.4557 C   0  0  0  0  0  0  0  0  0  0  0  0
   -5.0920  -15.6771   24.0752 N   0  0  0  0  0  0  0  0  0  0  0  0
   -5.1543  -14.2386   24.0080 C   0  0  0  0  0  0  0  0  0  0  0  0
   -5.9432  -13.5208   23.5040 O   0  0  0  0  0  0  0  0  0  0  0  0
   -4.0261  -13.7514   24.8281 C   0  0  0  0  0  0  0  0  0  0  0  0
   -2.7024  -14.0809   24.5865 C   0  0  0  0  0  0  0  0  0  0  0  0
   -2.1285  -14.3152   25.8049 N   0  0  0  0  0  0  0  0  0  0  0  0
   -3.0218  -14.0181   26.8100 C   0  0  0  0  0  0  0  0  0  0  0  0
   -2.9949  -14.3217   28.1854 C   0  0  0  0  0  0  0  0  0  0  0  0
   -3.9881  -13.8095   29.0126 C   0  0  0  0  0  0  0  0  0  0  0  0
   -5.0433  -13.1032   28.4687 C   0  0  0  0  0  0  0  0  0  0  0  0
   -6.4605  -12.5583   29.5934 Br  0  0  0  0  0  0  0  0  0  0  0  0
   -5.1508  -12.9383   27.0823 C   0  0  0  0  0  0  0  0  0  0  0  0
   -4.1138  -13.3862   26.2215 C   0  0  0  0  0  0  0  0  0  0  0  0
   -7.9574  -19.9018   22.4332 C   0  0  0  0  0  0  0  0  0  0  0  0
   -9.3522  -21.2071   22.1565 N   0  0  0  0  0  0  0  0  0  0  0  0
  -10.3360  -21.3630   20.9856 C   0  0  0  0  0  0  0  0  0  0  0  0
  -11.5758  -22.3292   21.0803 C   0  0  0  0  0  0  0  0  0  0  0  0
  -12.3339  -22.0540   22.3119 C   0  0  0  0  0  0  0  0  0  0  0  0
  -11.6127  -21.9573   23.5443 C   0  0  0  0  0  0  0  0  0  0  0  0
  -10.3029  -21.3098   23.2280 C   0  0  0  0  0  0  0  0  0  0  0  0
   -6.6975  -18.5517   19.8952 H   0  0  0  0  0  0  0  0  0  0  0  0
   -5.5282  -19.3794   20.8167 H   0  0  0  0  0  0  0  0  0  0  0  0
   -5.4606  -17.6268   20.7099 H   0  0  0  0  0  0  0  0  0  0  0  0
   -7.8119  -17.6402   21.7414 H   0  0  0  0  0  0  0  0  0  0  0  0
   -7.3029  -16.5913   23.5562 H   0  0  0  0  0  0  0  0  0  0  0  0
   -6.2550  -18.0648   24.0272 H   0  0  0  0  0  0  0  0  0  0  0  0
   -4.1982  -15.9566   24.5344 H   0  0  0  0  0  0  0  0  0  0  0  0
   -2.1908  -14.3850   23.6827 H   0  0  0  0  0  0  0  0  0  0  0  0
   -1.2083  -14.7100   25.9438 H   0  0  0  0  0  0  0  0  0  0  0  0
   -2.2303  -14.9608   28.6097 H   0  0  0  0  0  0  0  0  0  0  0  0
   -3.9628  -14.0516   30.0695 H   0  0  0  0  0  0  0  0  0  0  0  0
   -6.0683  -12.5332   26.6625 H   0  0  0  0  0  0  0  0  0  0  0  0
   -7.8957  -19.9084   21.3396 H   0  0  0  0  0  0  0  0  0  0  0  0
   -8.4966  -19.2391   23.0839 H   0  0  0  0  0  0  0  0  0  0  0  0
   -9.6963  -21.5744   20.1552 H   0  0  0  0  0  0  0  0  0  0  0  0
  -10.9803  -20.5141   20.8222 H   0  0  0  0  0  0  0  0  0  0  0  0
  -12.1959  -22.1027   20.2229 H   0  0  0  0  0  0  0  0  0  0  0  0
  -11.4702  -23.4008   21.0105 H   0  0  0  0  0  0  0  0  0  0  0  0
  -13.2385  -22.6179   22.4864 H   0  0  0  0  0  0  0  0  0  0  0  0
  -12.4826  -21.0228   22.1872 H   0  0  0  0  0  0  0  0  0  0  0  0
  -12.1824  -21.3341   24.2523 H   0  0  0  0  0  0  0  0  0  0  0  0
  -11.5153  -22.8832   24.0837 H   0  0  0  0  0  0  0  0  0  0  0  0
  -10.4564  -20.3290   23.6421 H   0  0  0  0  0  0  0  0  0  0  0  0
   -9.6880  -22.0949   23.6144 H   0  0  0  0  0  0  0  0  0  0  0  0
  1  2  1  0
  2  3  1  0
  3  4  1  0
  4  5  1  0
  5  6  2  0
  5  7  1  0
  7  8  2  0
  8  9  1  0
  9 10  1  0
 10 11  2  0
 11 12  1  0
 12 13  2  0
 13 14  1  0
 13 15  1  0
 15 16  2  0
  2 17  1  0
 17 18  1  0
 18 19  1  0
 19 20  1  0
 20 21  1  0
 21 22  1  0
 22 23  1  0
 16  7  1  0
 23 18  1  0
 16 10  1  0
  1 24  1  0
  1 25  1  0
  1 26  1  0
  2 27  1  0
  3 28  1  0
  3 29  1  0
  4 30  1  0
  8 31  1  0
  9 32  1  0
 11 33  1  0
 12 34  1  0
 15 35  1  0
 17 36  1  0
 17 37  1  0
 19 38  1  0
 19 39  1  0
 20 40  1  0
 20 41  1  0
 21 42  1  0
 21 43  1  0
 22 44  1  0
 22 45  1  0
 23 46  1  0
 23 47  1  0
M  END
>  <Energy>  (698) 
460.29937624667383

>  <compound_id>  (698) 
11888

>  <target_id>  (698) 
1

>  <reference_id>  (698) 
40

>  <inspiration_ids>  (698) 
[40, 9]

>  <energy_score>  (698) 
408.4204837752161

>  <distance_score>  (698) 
10.654891961137388

>  <path>  (698) 
/opt/xchem-fragalysis-2/maxwin/BulkDock/SCRATCH/511015/C11888-P40/C11888-P40.minimised.mol

>  <scratch_subdir>  (698) 
/opt/xchem-fragalysis-2/maxwin/BulkDock/SCRATCH/511015/C11888-P40

>  <fragmenstein_runtime>  (698) 
21.238317489624023

>  <fragmenstein_outcome>  (698) 
too moved

>  <fragmenstein_mode>  (698) 
expansion

>  <fragmenstein_error>  (698) 


$$$$
C11888-P9
     RDKit          3D

 47 49  0  0  0  0  0  0  0  0999 V2000
  -10.0588  -12.0808   19.5629 C   0  0  0  0  0  0  0  0  0  0  0  0
   -8.6840  -12.4956   19.0613 C   0  0  0  0  0  0  0  0  0  0  0  0
   -7.4987  -11.2784   19.2411 C   0  0  0  0  0  0  0  0  0  0  0  0
   -7.7200  -10.1365   20.5528 N   0  0  0  0  0  0  0  0  0  0  0  0
   -6.4100   -9.0300   21.5782 C   0  0  0  0  0  0  0  0  0  0  0  0
   -5.1587   -8.9969   21.5422 O   0  0  0  0  0  0  0  0  0  0  0  0
   -7.0128   -7.9850   22.4766 C   0  0  0  0  0  0  0  0  0  0  0  0
   -7.6015   -8.0567   23.7322 C   0  0  0  0  0  0  0  0  0  0  0  0
   -8.1940   -9.2897   23.8243 N   0  0  0  0  0  0  0  0  0  0  0  0
   -7.8847   -9.8569   22.6009 C   0  0  0  0  0  0  0  0  0  0  0  0
   -6.6157  -11.0396   22.1573 C   0  0  0  0  0  0  0  0  0  0  0  0
   -5.6339  -10.8231   20.6905 C   0  0  0  0  0  0  0  0  0  0  0  0
   -5.8994   -9.4474   19.5687 C   0  0  0  0  0  0  0  0  0  0  0  0
   -4.4313   -8.9235   18.4667 Br  0  0  0  0  0  0  0  0  0  0  0  0
   -7.1683   -8.2496   19.8987 C   0  0  0  0  0  0  0  0  0  0  0  0
   -7.9500   -8.3472   21.5680 C   0  0  0  0  0  0  0  0  0  0  0  0
   -8.7834  -13.0407   17.5585 C   0  0  0  0  0  0  0  0  0  0  0  0
   -9.2419  -14.4440   17.2523 N   0  0  0  0  0  0  0  0  0  0  0  0
  -10.7066  -14.5532   17.1051 C   0  0  0  0  0  0  0  0  0  0  0  0
  -11.2039  -15.9180   16.5956 C   0  0  0  0  0  0  0  0  0  0  0  0
  -10.5110  -16.3598   15.3226 C   0  0  0  0  0  0  0  0  0  0  0  0
   -9.0119  -16.2861   15.5356 C   0  0  0  0  0  0  0  0  0  0  0  0
   -8.5974  -14.8882   15.9887 C   0  0  0  0  0  0  0  0  0  0  0  0
  -10.4003  -11.1829   19.0370 H   0  0  0  0  0  0  0  0  0  0  0  0
  -10.8170  -12.8493   19.4256 H   0  0  0  0  0  0  0  0  0  0  0  0
  -10.0211  -11.8429   20.6307 H   0  0  0  0  0  0  0  0  0  0  0  0
   -8.3508  -13.3098   19.6903 H   0  0  0  0  0  0  0  0  0  0  0  0
   -6.5405  -11.7799   19.0948 H   0  0  0  0  0  0  0  0  0  0  0  0
   -7.6835  -10.6378   18.3660 H   0  0  0  0  0  0  0  0  0  0  0  0
   -8.6840   -9.8691   20.7536 H   0  0  0  0  0  0  0  0  0  0  0  0
   -7.5543   -7.3866   24.5793 H   0  0  0  0  0  0  0  0  0  0  0  0
   -8.3627   -9.7710   24.6983 H   0  0  0  0  0  0  0  0  0  0  0  0
   -6.2432  -11.6686   22.9648 H   0  0  0  0  0  0  0  0  0  0  0  0
   -4.6949  -11.3732   20.5989 H   0  0  0  0  0  0  0  0  0  0  0  0
   -7.1139   -7.2539   19.4591 H   0  0  0  0  0  0  0  0  0  0  0  0
   -7.7687  -12.9242   17.1560 H   0  0  0  0  0  0  0  0  0  0  0  0
   -9.3804  -12.3270   16.9735 H   0  0  0  0  0  0  0  0  0  0  0  0
  -11.0744  -13.7795   16.4183 H   0  0  0  0  0  0  0  0  0  0  0  0
  -11.1850  -14.3816   18.0724 H   0  0  0  0  0  0  0  0  0  0  0  0
  -12.2850  -15.8692   16.4236 H   0  0  0  0  0  0  0  0  0  0  0  0
  -11.0342  -16.6721   17.3644 H   0  0  0  0  0  0  0  0  0  0  0  0
  -10.8210  -17.3736   15.0594 H   0  0  0  0  0  0  0  0  0  0  0  0
  -10.8037  -15.7061   14.4923 H   0  0  0  0  0  0  0  0  0  0  0  0
   -8.4896  -16.5305   14.6048 H   0  0  0  0  0  0  0  0  0  0  0  0
   -8.7005  -17.0105   16.2945 H   0  0  0  0  0  0  0  0  0  0  0  0
   -8.8166  -14.1721   15.1846 H   0  0  0  0  0  0  0  0  0  0  0  0
   -7.5088  -14.8953   16.1209 H   0  0  0  0  0  0  0  0  0  0  0  0
  1  2  1  0
  2  3  1  0
  3  4  1  0
  4  5  1  0
  5  6  2  0
  5  7  1  0
  7  8  2  0
  8  9  1  0
  9 10  1  0
 10 11  2  0
 11 12  1  0
 12 13  2  0
 13 14  1  0
 13 15  1  0
 15 16  2  0
  2 17  1  0
 17 18  1  0
 18 19  1  0
 19 20  1  0
 20 21  1  0
 21 22  1  0
 22 23  1  0
 16  7  1  0
 23 18  1  0
 16 10  1  0
  1 24  1  0
  1 25  1  0
  1 26  1  0
  2 27  1  0
  3 28  1  0
  3 29  1  0
  4 30  1  0
  8 31  1  0
  9 32  1  0
 11 33  1  0
 12 34  1  0
 15 35  1  0
 17 36  1  0
 17 37  1  0
 19 38  1  0
 19 39  1  0
 20 40  1  0
 20 41  1  0
 21 42  1  0
 21 43  1  0
 22 44  1  0
 22 45  1  0
 23 46  1  0
 23 47  1  0
M  END
>  <Energy>  (699) 
1057.2438217879601

>  <compound_id>  (699) 
11888

>  <target_id>  (699) 
1

>  <reference_id>  (699) 
9

>  <inspiration_ids>  (699) 
[40, 9]

>  <energy_score>  (699) 
1005.3649293164941

>  <distance_score>  (699) 
12.533269811507656

>  <path>  (699) 
/opt/xchem-fragalysis-2/maxwin/BulkDock/SCRATCH/511015/C11888-P9/C11888-P9.minimised.mol

>  <scratch_subdir>  (699) 
/opt/xchem-fragalysis-2/maxwin/BulkDock/SCRATCH/511015/C11888-P9

>  <fragmenstein_runtime>  (699) 
20.449413776397705

>  <fragmenstein_outcome>  (699) 
too moved

>  <fragmenstein_mode>  (699) 
expansion

>  <fragmenstein_error>  (699) 


$$$$
C11889-P40
     RDKit          3D

 47 49  0  0  0  0  0  0  0  0999 V2000
  -11.7617  -18.9147   20.6410 C   0  0  0  0  0  0  0  0  0  0  0  0
  -10.4498  -19.2056   20.5940 C   0  0  0  0  0  0  0  0  0  0  0  0
   -9.7774  -20.2630   21.4465 C   0  0  0  0  0  0  0  0  0  0  0  0
   -7.8735  -19.5801   21.8857 C   0  0  0  0  0  0  0  0  0  0  0  0
   -6.5022  -18.6206   22.8876 O   0  0  0  0  0  0  0  0  0  0  0  0
   -6.3558  -17.0785   23.4582 C   0  0  0  0  0  0  0  0  0  0  0  0
   -7.4323  -16.5724   23.4455 O   0  0  0  0  0  0  0  0  0  0  0  0
   -4.8532  -15.5383   24.0490 C   0  0  0  0  0  0  0  0  0  0  0  0
   -3.1105  -15.6985   25.1203 C   0  0  0  0  0  0  0  0  0  0  0  0
   -2.3939  -16.7380   25.9389 C   0  0  0  0  0  0  0  0  0  0  0  0
   -1.8933  -16.3150   27.2128 N   0  0  0  0  0  0  0  0  0  0  0  0
   -2.0965  -14.9719   27.5424 C   0  0  0  0  0  0  0  0  0  0  0  0
   -2.2591  -14.2157   28.8738 C   0  0  0  0  0  0  0  0  0  0  0  0
   -2.5930  -12.5852   28.9075 C   0  0  0  0  0  0  0  0  0  0  0  0
   -2.7569  -12.0513   27.5086 C   0  0  0  0  0  0  0  0  0  0  0  0
   -2.6172  -12.9017   26.2691 C   0  0  0  0  0  0  0  0  0  0  0  0
   -2.3807  -14.3627   26.2416 C   0  0  0  0  0  0  0  0  0  0  0  0
  -10.8289  -21.6799   20.6530 N   0  0  0  0  0  0  0  0  0  0  0  0
  -12.3284  -21.9125   19.4881 C   0  0  0  0  0  0  0  0  0  0  0  0
  -13.0855  -23.4456   18.3412 C   0  0  0  0  0  0  0  0  0  0  0  0
  -12.8934  -24.6752   19.4060 C   0  0  0  0  0  0  0  0  0  0  0  0
  -11.9442  -24.1670   20.6074 C   0  0  0  0  0  0  0  0  0  0  0  0
  -11.5242  -22.6005   21.5759 C   0  0  0  0  0  0  0  0  0  0  0  0
  -12.1842  -18.1668   19.9788 H   0  0  0  0  0  0  0  0  0  0  0  0
  -12.4248  -19.4053   21.3435 H   0  0  0  0  0  0  0  0  0  0  0  0
   -9.8071  -18.6861   19.8873 H   0  0  0  0  0  0  0  0  0  0  0  0
  -10.2410  -20.2607   22.4404 H   0  0  0  0  0  0  0  0  0  0  0  0
   -7.5317  -19.2217   20.9074 H   0  0  0  0  0  0  0  0  0  0  0  0
   -7.3979  -20.5509   22.0722 H   0  0  0  0  0  0  0  0  0  0  0  0
   -5.1155  -14.5466   23.6007 H   0  0  0  0  0  0  0  0  0  0  0  0
   -4.1536  -15.4415   23.1570 H   0  0  0  0  0  0  0  0  0  0  0  0
   -2.2372  -17.7947   25.8461 H   0  0  0  0  0  0  0  0  0  0  0  0
   -1.4374  -16.9758   27.8101 H   0  0  0  0  0  0  0  0  0  0  0  0
   -2.4342  -14.7892   29.7741 H   0  0  0  0  0  0  0  0  0  0  0  0
   -3.0147  -12.0740   29.7288 H   0  0  0  0  0  0  0  0  0  0  0  0
   -2.2147  -11.1618   27.3099 H   0  0  0  0  0  0  0  0  0  0  0  0
   -2.8059  -12.4306   25.3136 H   0  0  0  0  0  0  0  0  0  0  0  0
  -12.7932  -20.9317   19.3001 H   0  0  0  0  0  0  0  0  0  0  0  0
  -12.7981  -22.2763   20.3111 H   0  0  0  0  0  0  0  0  0  0  0  0
  -14.1599  -23.6504   18.1120 H   0  0  0  0  0  0  0  0  0  0  0  0
  -13.0200  -23.7023   17.2906 H   0  0  0  0  0  0  0  0  0  0  0  0
  -12.4899  -25.6051   18.9476 H   0  0  0  0  0  0  0  0  0  0  0  0
  -13.8127  -25.1768   19.6490 H   0  0  0  0  0  0  0  0  0  0  0  0
  -12.3673  -24.9511   21.1344 H   0  0  0  0  0  0  0  0  0  0  0  0
  -10.9620  -24.5749   20.4696 H   0  0  0  0  0  0  0  0  0  0  0  0
  -12.4437  -22.2073   22.0278 H   0  0  0  0  0  0  0  0  0  0  0  0
  -10.9857  -22.6325   22.5244 H   0  0  0  0  0  0  0  0  0  0  0  0
  1  2  2  0
  2  3  1  0
  3  4  1  0
  4  5  1  0
  5  6  1  0
  6  7  2  0
  6  8  1  0
  8  9  1  0
  9 10  2  0
 10 11  1  0
 11 12  1  0
 12 13  2  0
 13 14  1  0
 14 15  2  0
 15 16  1  0
 16 17  2  0
  3 18  1  0
 18 19  1  0
 19 20  1  0
 20 21  1  0
 21 22  1  0
 22 23  1  0
 17  9  1  0
 23 18  1  0
 17 12  1  0
  1 24  1  0
  1 25  1  0
  2 26  1  0
  3 27  1  0
  4 28  1  0
  4 29  1  0
  8 30  1  0
  8 31  1  0
 10 32  1  0
 11 33  1  0
 13 34  1  0
 14 35  1  0
 15 36  1  0
 16 37  1  0
 19 38  1  0
 19 39  1  0
 20 40  1  0
 20 41  1  0
 21 42  1  0
 21 43  1  0
 22 44  1  0
 22 45  1  0
 23 46  1  0
 23 47  1  0
M  END
>  <Energy>  (700) 
1128.9336100612365

>  <compound_id>  (700) 
11889

>  <target_id>  (700) 
1

>  <reference_id>  (700) 
40

>  <inspiration_ids>  (700) 
[40, 9]

>  <energy_score>  (700) 
1020.9925788626233

>  <distance_score>  (700) 
8.90202615914705

>  <path>  (700) 
/opt/xchem-fragalysis-2/maxwin/BulkDock/SCRATCH/511015/C11889-P40/C11889-P40.minimised.mol

>  <scratch_subdir>  (700) 
/opt/xchem-fragalysis-2/maxwin/BulkDock/SCRATCH/511015/C11889-P40

>  <fragmenstein_runtime>  (700) 
13.98545217514038

>  <fragmenstein_outcome>  (700) 
too moved

>  <fragmenstein_mode>  (700) 
expansion

>  <fragmenstein_error>  (700) 


$$$$
C11889-P9
     RDKit          3D

 47 49  0  0  0  0  0  0  0  0999 V2000
   -6.0412  -20.8700   19.0199 C   0  0  0  0  0  0  0  0  0  0  0  0
   -5.9886  -20.5393   20.3221 C   0  0  0  0  0  0  0  0  0  0  0  0
   -6.7925  -19.4314   21.0206 C   0  0  0  0  0  0  0  0  0  0  0  0
   -6.0060  -18.0067   20.9061 C   0  0  0  0  0  0  0  0  0  0  0  0
   -5.3799  -17.3608   22.1854 O   0  0  0  0  0  0  0  0  0  0  0  0
   -4.3658  -16.1233   22.1895 C   0  0  0  0  0  0  0  0  0  0  0  0
   -3.6286  -16.1727   21.1757 O   0  0  0  0  0  0  0  0  0  0  0  0
   -4.2954  -14.6251   23.6849 C   0  0  0  0  0  0  0  0  0  0  0  0
   -3.8294  -12.7109   24.6400 C   0  0  0  0  0  0  0  0  0  0  0  0
   -2.4554  -13.4880   25.5131 C   0  0  0  0  0  0  0  0  0  0  0  0
   -2.0624  -13.3214   26.6998 N   0  0  0  0  0  0  0  0  0  0  0  0
   -2.3842  -12.0389   26.8581 C   0  0  0  0  0  0  0  0  0  0  0  0
   -2.1947  -11.2860   28.0022 C   0  0  0  0  0  0  0  0  0  0  0  0
   -2.6544  -11.7372   29.1727 C   0  0  0  0  0  0  0  0  0  0  0  0
   -3.9190  -12.0769   29.0297 C   0  0  0  0  0  0  0  0  0  0  0  0
   -4.4015  -12.0556   27.5414 C   0  0  0  0  0  0  0  0  0  0  0  0
   -3.5715  -12.2385   26.3620 C   0  0  0  0  0  0  0  0  0  0  0  0
   -8.1600  -19.5702   20.4365 N   0  0  0  0  0  0  0  0  0  0  0  0
   -8.7811  -18.3063   20.1245 C   0  0  0  0  0  0  0  0  0  0  0  0
  -10.2396  -18.4449   19.7559 C   0  0  0  0  0  0  0  0  0  0  0  0
  -11.1160  -19.1989   20.7578 C   0  0  0  0  0  0  0  0  0  0  0  0
  -10.2777  -19.9436   21.7828 C   0  0  0  0  0  0  0  0  0  0  0  0
   -9.0151  -20.5185   21.1596 C   0  0  0  0  0  0  0  0  0  0  0  0
   -5.4288  -21.6734   18.6217 H   0  0  0  0  0  0  0  0  0  0  0  0
   -6.7034  -20.3524   18.3335 H   0  0  0  0  0  0  0  0  0  0  0  0
   -5.3007  -21.0892   20.9588 H   0  0  0  0  0  0  0  0  0  0  0  0
   -6.8813  -19.6366   22.0911 H   0  0  0  0  0  0  0  0  0  0  0  0
   -5.2401  -18.0807   20.1302 H   0  0  0  0  0  0  0  0  0  0  0  0
   -6.7135  -17.2466   20.6038 H   0  0  0  0  0  0  0  0  0  0  0  0
   -3.8660  -15.3703   24.3732 H   0  0  0  0  0  0  0  0  0  0  0  0
   -5.3307  -14.3186   23.6100 H   0  0  0  0  0  0  0  0  0  0  0  0
   -2.3513  -14.4337   25.0909 H   0  0  0  0  0  0  0  0  0  0  0  0
   -1.6715  -13.9995   27.3438 H   0  0  0  0  0  0  0  0  0  0  0  0
   -1.3443  -10.5973   28.0519 H   0  0  0  0  0  0  0  0  0  0  0  0
   -2.1079  -11.2026   29.9176 H   0  0  0  0  0  0  0  0  0  0  0  0
   -4.6670  -12.1618   29.8097 H   0  0  0  0  0  0  0  0  0  0  0  0
   -5.5059  -11.9571   27.3794 H   0  0  0  0  0  0  0  0  0  0  0  0
   -8.6422  -17.6390   20.9604 H   0  0  0  0  0  0  0  0  0  0  0  0
   -8.2721  -17.8557   19.2631 H   0  0  0  0  0  0  0  0  0  0  0  0
  -10.1531  -19.0022   18.8437 H   0  0  0  0  0  0  0  0  0  0  0  0
  -10.6871  -17.4801   19.4950 H   0  0  0  0  0  0  0  0  0  0  0  0
  -11.8035  -19.8789   20.2511 H   0  0  0  0  0  0  0  0  0  0  0  0
  -11.8073  -18.5285   21.2755 H   0  0  0  0  0  0  0  0  0  0  0  0
  -10.0052  -19.2657   22.5965 H   0  0  0  0  0  0  0  0  0  0  0  0
  -10.8755  -20.7448   22.2329 H   0  0  0  0  0  0  0  0  0  0  0  0
   -8.4621  -21.1031   21.9032 H   0  0  0  0  0  0  0  0  0  0  0  0
   -9.3787  -21.2336   20.4326 H   0  0  0  0  0  0  0  0  0  0  0  0
  1  2  2  0
  2  3  1  0
  3  4  1  0
  4  5  1  0
  5  6  1  0
  6  7  2  0
  6  8  1  0
  8  9  1  0
  9 10  2  0
 10 11  1  0
 11 12  1  0
 12 13  2  0
 13 14  1  0
 14 15  2  0
 15 16  1  0
 16 17  2  0
  3 18  1  0
 18 19  1  0
 19 20  1  0
 20 21  1  0
 21 22  1  0
 22 23  1  0
 17  9  1  0
 23 18  1  0
 17 12  1  0
  1 24  1  0
  1 25  1  0
  2 26  1  0
  3 27  1  0
  4 28  1  0
  4 29  1  0
  8 30  1  0
  8 31  1  0
 10 32  1  0
 11 33  1  0
 13 34  1  0
 14 35  1  0
 15 36  1  0
 16 37  1  0
 19 38  1  0
 19 39  1  0
 20 40  1  0
 20 41  1  0
 21 42  1  0
 21 43  1  0
 22 44  1  0
 22 45  1  0
 23 46  1  0
 23 47  1  0
M  END
>  <Energy>  (701) 
717.4243028076653

>  <compound_id>  (701) 
11889

>  <target_id>  (701) 
1

>  <reference_id>  (701) 
9

>  <inspiration_ids>  (701) 
[40, 9]

>  <energy_score>  (701) 
609.4832716090486

>  <distance_score>  (701) 
9.376805980373987

>  <path>  (701) 
/opt/xchem-fragalysis-2/maxwin/BulkDock/SCRATCH/511015/C11889-P9/C11889-P9.minimised.mol

>  <scratch_subdir>  (701) 
/opt/xchem-fragalysis-2/maxwin/BulkDock/SCRATCH/511015/C11889-P9

>  <fragmenstein_runtime>  (701) 
22.080852270126343

>  <fragmenstein_outcome>  (701) 
too moved

>  <fragmenstein_mode>  (701) 
expansion

>  <fragmenstein_error>  (701) 


$$$$
C11890-P40
     RDKit          3D

 45 47  0  0  0  0  0  0  0  0999 V2000
  -10.5102  -16.8382   24.2485 O   0  0  0  0  0  0  0  0  0  0  0  0
   -9.3570  -16.4353   24.1916 C   0  0  0  0  0  0  0  0  0  0  0  0
   -7.8497  -16.9826   22.9137 N   0  0  0  0  0  0  0  0  0  0  0  0
   -7.6948  -18.4443   21.4828 C   0  0  0  0  0  0  0  0  0  0  0  0
   -8.1568  -19.9293   20.0279 C   0  0  0  0  0  0  0  0  0  0  0  0
   -8.7728  -20.8267   20.5459 O   0  0  0  0  0  0  0  0  0  0  0  0
   -8.1056  -20.1403   18.2460 N   0  0  0  0  0  0  0  0  0  0  0  0
   -8.6981  -21.0206   17.4132 C   0  0  0  0  0  0  0  0  0  0  0  0
   -9.5503  -21.4157   15.8908 C   0  0  0  0  0  0  0  0  0  0  0  0
   -8.9430  -22.5727   15.2522 C   0  0  0  0  0  0  0  0  0  0  0  0
   -7.5127  -22.2481   15.6111 C   0  0  0  0  0  0  0  0  0  0  0  0
   -6.8516  -21.0458   17.2566 C   0  0  0  0  0  0  0  0  0  0  0  0
   -8.4368  -15.3211   25.3105 N   0  0  0  0  0  0  0  0  0  0  0  0
   -8.8814  -14.6389   26.8011 C   0  0  0  0  0  0  0  0  0  0  0  0
   -8.2707  -13.1616   27.5892 C   0  0  0  0  0  0  0  0  0  0  0  0
   -8.7055  -12.9956   28.9414 C   0  0  0  0  0  0  0  0  0  0  0  0
   -8.6713  -11.8115   29.6971 C   0  0  0  0  0  0  0  0  0  0  0  0
   -8.2799  -10.6218   29.1234 C   0  0  0  0  0  0  0  0  0  0  0  0
   -7.7619  -10.6648   27.8358 C   0  0  0  0  0  0  0  0  0  0  0  0
   -7.3719   -9.6017   26.9637 C   0  0  0  0  0  0  0  0  0  0  0  0
   -6.8156  -10.1832   25.8629 C   0  0  0  0  0  0  0  0  0  0  0  0
   -6.7823  -11.5296   26.1272 N   0  0  0  0  0  0  0  0  0  0  0  0
   -7.6242  -11.9047   27.1703 C   0  0  0  0  0  0  0  0  0  0  0  0
   -6.9855  -16.5449   23.1534 H   0  0  0  0  0  0  0  0  0  0  0  0
   -7.3260  -19.1595   22.2402 H   0  0  0  0  0  0  0  0  0  0  0  0
   -6.7634  -18.0521   21.0357 H   0  0  0  0  0  0  0  0  0  0  0  0
   -9.1811  -21.5100   18.2074 H   0  0  0  0  0  0  0  0  0  0  0  0
   -9.3300  -20.1505   17.4208 H   0  0  0  0  0  0  0  0  0  0  0  0
   -9.7223  -21.1032   14.8398 H   0  0  0  0  0  0  0  0  0  0  0  0
   -9.6886  -20.3513   15.7074 H   0  0  0  0  0  0  0  0  0  0  0  0
   -9.0948  -22.6397   14.1577 H   0  0  0  0  0  0  0  0  0  0  0  0
   -9.3174  -23.5382   15.5432 H   0  0  0  0  0  0  0  0  0  0  0  0
   -7.3444  -21.8338   14.5675 H   0  0  0  0  0  0  0  0  0  0  0  0
   -7.0772  -23.1695   15.7650 H   0  0  0  0  0  0  0  0  0  0  0  0
   -6.3468  -21.6996   17.9973 H   0  0  0  0  0  0  0  0  0  0  0  0
   -6.0396  -20.3261   17.0675 H   0  0  0  0  0  0  0  0  0  0  0  0
   -7.5317  -15.1208   24.9429 H   0  0  0  0  0  0  0  0  0  0  0  0
   -8.4370  -15.3881   27.4564 H   0  0  0  0  0  0  0  0  0  0  0  0
   -9.9402  -14.7944   27.0296 H   0  0  0  0  0  0  0  0  0  0  0  0
   -9.1564  -13.8132   29.4778 H   0  0  0  0  0  0  0  0  0  0  0  0
   -9.0581  -11.8181   30.7131 H   0  0  0  0  0  0  0  0  0  0  0  0
   -8.3722   -9.6775   29.6434 H   0  0  0  0  0  0  0  0  0  0  0  0
   -7.4440   -8.5430   27.1652 H   0  0  0  0  0  0  0  0  0  0  0  0
   -6.3567   -9.7763   24.9726 H   0  0  0  0  0  0  0  0  0  0  0  0
   -6.3479  -12.1745   25.4982 H   0  0  0  0  0  0  0  0  0  0  0  0
  1  2  2  0
  2  3  1  0
  3  4  1  0
  4  5  1  0
  5  6  2  0
  5  7  1  0
  7  8  1  0
  8  9  1  0
  9 10  1  0
 10 11  1  0
 11 12  1  0
  2 13  1  0
 13 14  1  0
 14 15  1  0
 15 16  2  0
 16 17  1  0
 17 18  2  0
 18 19  1  0
 19 20  1  0
 20 21  2  0
 21 22  1  0
 22 23  1  0
 12  7  1  0
 23 15  1  0
 23 19  2  0
  3 24  1  0
  4 25  1  0
  4 26  1  0
  8 27  1  0
  8 28  1  0
  9 29  1  0
  9 30  1  0
 10 31  1  0
 10 32  1  0
 11 33  1  0
 11 34  1  0
 12 35  1  0
 12 36  1  0
 13 37  1  0
 14 38  1  0
 14 39  1  0
 16 40  1  0
 17 41  1  0
 18 42  1  0
 20 43  1  0
 21 44  1  0
 22 45  1  0
M  END
>  <Energy>  (702) 
916.69760953116452

>  <compound_id>  (702) 
11890

>  <target_id>  (702) 
1

>  <reference_id>  (702) 
40

>  <inspiration_ids>  (702) 
[40, 9]

>  <energy_score>  (702) 
948.9557370494197

>  <distance_score>  (702) 
10.053567422545203

>  <path>  (702) 
/opt/xchem-fragalysis-2/maxwin/BulkDock/SCRATCH/511015/C11890-P40/C11890-P40.minimised.mol

>  <scratch_subdir>  (702) 
/opt/xchem-fragalysis-2/maxwin/BulkDock/SCRATCH/511015/C11890-P40

>  <fragmenstein_runtime>  (702) 
15.91489028930664

>  <fragmenstein_outcome>  (702) 
too moved

>  <fragmenstein_mode>  (702) 
expansion

>  <fragmenstein_error>  (702) 


$$$$
C11890-P9
     RDKit          3D

 45 47  0  0  0  0  0  0  0  0999 V2000
   -5.7420  -17.4219   21.2011 O   0  0  0  0  0  0  0  0  0  0  0  0
   -6.7695  -17.6684   21.7242 C   0  0  0  0  0  0  0  0  0  0  0  0
   -7.7878  -18.6645   21.3813 N   0  0  0  0  0  0  0  0  0  0  0  0
   -7.9387  -19.8440   19.9036 C   0  0  0  0  0  0  0  0  0  0  0  0
   -8.9201  -20.0098   18.1600 C   0  0  0  0  0  0  0  0  0  0  0  0
   -9.4608  -19.0426   17.6402 O   0  0  0  0  0  0  0  0  0  0  0  0
   -8.7661  -21.1512   17.7498 N   0  0  0  0  0  0  0  0  0  0  0  0
   -9.3788  -21.9585   16.2727 C   0  0  0  0  0  0  0  0  0  0  0  0
   -9.6021  -23.1676   15.2392 C   0  0  0  0  0  0  0  0  0  0  0  0
   -8.9656  -22.4423   14.1990 C   0  0  0  0  0  0  0  0  0  0  0  0
   -7.7334  -22.1466   15.1187 C   0  0  0  0  0  0  0  0  0  0  0  0
   -7.3872  -21.2629   17.0091 C   0  0  0  0  0  0  0  0  0  0  0  0
   -7.5077  -16.7377   23.1099 N   0  0  0  0  0  0  0  0  0  0  0  0
   -6.8878  -14.9652   24.0431 C   0  0  0  0  0  0  0  0  0  0  0  0
   -6.0205  -13.1431   23.6464 C   0  0  0  0  0  0  0  0  0  0  0  0
   -6.7449  -11.7635   23.1705 C   0  0  0  0  0  0  0  0  0  0  0  0
   -6.8412  -10.4207   23.8877 C   0  0  0  0  0  0  0  0  0  0  0  0
   -6.3908  -10.2706   25.2359 C   0  0  0  0  0  0  0  0  0  0  0  0
   -5.6916  -11.4150   25.6922 C   0  0  0  0  0  0  0  0  0  0  0  0
   -4.2130  -11.8488   26.6193 C   0  0  0  0  0  0  0  0  0  0  0  0
   -3.2783  -11.9684   25.6611 C   0  0  0  0  0  0  0  0  0  0  0  0
   -3.9914  -11.4725   24.5795 N   0  0  0  0  0  0  0  0  0  0  0  0
   -5.3093  -12.1418   24.5658 C   0  0  0  0  0  0  0  0  0  0  0  0
   -8.4795  -18.6612   22.0678 H   0  0  0  0  0  0  0  0  0  0  0  0
   -8.4752  -20.6874   20.3278 H   0  0  0  0  0  0  0  0  0  0  0  0
   -6.9017  -19.8823   19.5405 H   0  0  0  0  0  0  0  0  0  0  0  0
   -9.8774  -21.1130   15.8290 H   0  0  0  0  0  0  0  0  0  0  0  0
   -9.8499  -22.6324   16.8443 H   0  0  0  0  0  0  0  0  0  0  0  0
  -10.5575  -23.4215   14.7930 H   0  0  0  0  0  0  0  0  0  0  0  0
   -9.2030  -24.1342   15.4749 H   0  0  0  0  0  0  0  0  0  0  0  0
   -9.6629  -21.6691   13.8709 H   0  0  0  0  0  0  0  0  0  0  0  0
   -8.7799  -23.0036   13.2777 H   0  0  0  0  0  0  0  0  0  0  0  0
   -7.2326  -21.6206   14.2772 H   0  0  0  0  0  0  0  0  0  0  0  0
   -7.4813  -23.0712   15.5407 H   0  0  0  0  0  0  0  0  0  0  0  0
   -6.6340  -21.7589   17.7405 H   0  0  0  0  0  0  0  0  0  0  0  0
   -6.7296  -20.3714   17.1623 H   0  0  0  0  0  0  0  0  0  0  0  0
   -8.3017  -17.1795   23.4060 H   0  0  0  0  0  0  0  0  0  0  0  0
   -5.7707  -15.2786   24.0860 H   0  0  0  0  0  0  0  0  0  0  0  0
   -7.4636  -14.8862   25.0021 H   0  0  0  0  0  0  0  0  0  0  0  0
   -7.2535  -11.7459   22.2096 H   0  0  0  0  0  0  0  0  0  0  0  0
   -7.3483   -9.6028   23.3831 H   0  0  0  0  0  0  0  0  0  0  0  0
   -6.4792   -9.3519   25.7966 H   0  0  0  0  0  0  0  0  0  0  0  0
   -4.1718  -12.0112   27.6824 H   0  0  0  0  0  0  0  0  0  0  0  0
   -2.3303  -12.4574   25.7401 H   0  0  0  0  0  0  0  0  0  0  0  0
   -3.6253  -11.1242   23.7088 H   0  0  0  0  0  0  0  0  0  0  0  0
  1  2  2  0
  2  3  1  0
  3  4  1  0
  4  5  1  0
  5  6  2  0
  5  7  1  0
  7  8  1  0
  8  9  1  0
  9 10  1  0
 10 11  1  0
 11 12  1  0
  2 13  1  0
 13 14  1  0
 14 15  1  0
 15 16  2  0
 16 17  1  0
 17 18  2  0
 18 19  1  0
 19 20  1  0
 20 21  2  0
 21 22  1  0
 22 23  1  0
 12  7  1  0
 23 15  1  0
 23 19  2  0
  3 24  1  0
  4 25  1  0
  4 26  1  0
  8 27  1  0
  8 28  1  0
  9 29  1  0
  9 30  1  0
 10 31  1  0
 10 32  1  0
 11 33  1  0
 11 34  1  0
 12 35  1  0
 12 36  1  0
 13 37  1  0
 14 38  1  0
 14 39  1  0
 16 40  1  0
 17 41  1  0
 18 42  1  0
 20 43  1  0
 21 44  1  0
 22 45  1  0
M  END
>  <Energy>  (703) 
905.85973215981323

>  <compound_id>  (703) 
11890

>  <target_id>  (703) 
1

>  <reference_id>  (703) 
9

>  <inspiration_ids>  (703) 
[40, 9]

>  <energy_score>  (703) 
938.1178596780661

>  <distance_score>  (703) 
9.565453694534687

>  <path>  (703) 
/opt/xchem-fragalysis-2/maxwin/BulkDock/SCRATCH/511015/C11890-P9/C11890-P9.minimised.mol

>  <scratch_subdir>  (703) 
/opt/xchem-fragalysis-2/maxwin/BulkDock/SCRATCH/511015/C11890-P9

>  <fragmenstein_runtime>  (703) 
24.593294620513916

>  <fragmenstein_outcome>  (703) 
too moved

>  <fragmenstein_mode>  (703) 
expansion

>  <fragmenstein_error>  (703) 


$$$$
C11891-P40
     RDKit          3D

 62 64  0  0  0  0  0  0  0  0999 V2000
   -0.4749   -6.2078   32.3108 C   0  0  0  0  0  0  0  0  0  0  0  0
   -0.1756   -7.4090   31.3165 C   0  0  0  0  0  0  0  0  0  0  0  0
   -1.1578   -8.4275   31.9441 C   0  0  0  0  0  0  0  0  0  0  0  0
   -0.4583   -7.4039   29.7303 N   0  0  0  0  0  0  0  0  0  0  0  0
    0.0306   -8.6775   29.1045 C   0  0  0  0  0  0  0  0  0  0  0  0
    1.1062   -8.9002   28.6343 O   0  0  0  0  0  0  0  0  0  0  0  0
   -0.8686  -10.0637   29.1106 C   0  0  0  0  0  0  0  0  0  0  0  0
   -1.8135  -11.3060   27.4511 S   0  0  0  0  0  0  0  0  0  0  0  0
   -0.9660  -13.2305   26.0560 C   0  0  0  0  0  0  0  0  0  0  0  0
   -0.8649  -14.0464   24.4652 C   0  0  0  0  0  0  0  0  0  0  0  0
   -2.3554  -15.0074   24.1457 N   0  0  0  0  0  0  0  0  0  0  0  0
   -3.9414  -15.3614   22.9343 C   0  0  0  0  0  0  0  0  0  0  0  0
   -4.8170  -17.0705   21.9363 C   0  0  0  0  0  0  0  0  0  0  0  0
   -5.5166  -17.6587   22.7152 O   0  0  0  0  0  0  0  0  0  0  0  0
   -4.7002  -18.0356   20.3928 N   0  0  0  0  0  0  0  0  0  0  0  0
   -5.1887  -19.3826   20.0164 C   0  0  0  0  0  0  0  0  0  0  0  0
   -4.8401  -20.2902   18.8628 C   0  0  0  0  0  0  0  0  0  0  0  0
   -5.9561  -20.0512   17.9592 C   0  0  0  0  0  0  0  0  0  0  0  0
   -6.6943  -18.8644   18.5632 C   0  0  0  0  0  0  0  0  0  0  0  0
   -5.7778  -17.7064   19.3530 C   0  0  0  0  0  0  0  0  0  0  0  0
   -2.2455  -13.9222   25.0085 C   0  0  0  0  0  0  0  0  0  0  0  0
   -3.1368  -12.6491   24.7036 C   0  0  0  0  0  0  0  0  0  0  0  0
   -3.1331  -12.0985   25.7453 C   0  0  0  0  0  0  0  0  0  0  0  0
   -3.1086  -12.9350   26.7425 C   0  0  0  0  0  0  0  0  0  0  0  0
   -2.3460  -14.3559   27.1667 C   0  0  0  0  0  0  0  0  0  0  0  0
   -1.5976  -14.3953   26.1398 C   0  0  0  0  0  0  0  0  0  0  0  0
    0.2530   -5.9436   29.8503 C   0  0  0  0  0  0  0  0  0  0  0  0
    1.3967   -5.8553   28.7767 C   0  0  0  0  0  0  0  0  0  0  0  0
   -0.4945   -4.6152   29.7589 C   0  0  0  0  0  0  0  0  0  0  0  0
   -0.3766   -6.5397   33.3531 H   0  0  0  0  0  0  0  0  0  0  0  0
    0.2051   -5.3521   32.2649 H   0  0  0  0  0  0  0  0  0  0  0  0
   -1.4922   -5.8445   32.1841 H   0  0  0  0  0  0  0  0  0  0  0  0
    0.8154   -7.7806   31.4941 H   0  0  0  0  0  0  0  0  0  0  0  0
   -2.1972   -8.1553   31.7405 H   0  0  0  0  0  0  0  0  0  0  0  0
   -0.9960   -9.4362   31.6056 H   0  0  0  0  0  0  0  0  0  0  0  0
   -1.0408   -8.4700   33.0306 H   0  0  0  0  0  0  0  0  0  0  0  0
   -1.4518  -10.2930   29.9902 H   0  0  0  0  0  0  0  0  0  0  0  0
   -0.0439  -10.6184   29.4981 H   0  0  0  0  0  0  0  0  0  0  0  0
   -0.3994  -13.7038   23.5385 H   0  0  0  0  0  0  0  0  0  0  0  0
   -4.2323  -15.4921   23.9806 H   0  0  0  0  0  0  0  0  0  0  0  0
   -4.5811  -14.5074   23.1958 H   0  0  0  0  0  0  0  0  0  0  0  0
   -6.0666  -19.6569   20.6396 H   0  0  0  0  0  0  0  0  0  0  0  0
   -4.5019  -19.9545   20.6456 H   0  0  0  0  0  0  0  0  0  0  0  0
   -3.8816  -20.0974   18.3861 H   0  0  0  0  0  0  0  0  0  0  0  0
   -4.8265  -21.3457   19.1662 H   0  0  0  0  0  0  0  0  0  0  0  0
   -5.4733  -19.9201   17.0062 H   0  0  0  0  0  0  0  0  0  0  0  0
   -6.6214  -20.9080   17.8936 H   0  0  0  0  0  0  0  0  0  0  0  0
   -7.3055  -19.3595   19.3251 H   0  0  0  0  0  0  0  0  0  0  0  0
   -7.3427  -18.3526   17.8581 H   0  0  0  0  0  0  0  0  0  0  0  0
   -6.5382  -17.1475   19.8915 H   0  0  0  0  0  0  0  0  0  0  0  0
   -5.2283  -17.2652   18.5138 H   0  0  0  0  0  0  0  0  0  0  0  0
   -3.9989  -12.5471   24.0669 H   0  0  0  0  0  0  0  0  0  0  0  0
   -2.4670  -11.3741   25.5002 H   0  0  0  0  0  0  0  0  0  0  0  0
   -3.7970  -12.2669   27.3967 H   0  0  0  0  0  0  0  0  0  0  0  0
   -2.2962  -14.8688   28.1172 H   0  0  0  0  0  0  0  0  0  0  0  0
    0.9888   -5.8813   30.6629 H   0  0  0  0  0  0  0  0  0  0  0  0
    2.0849   -6.6992   28.8521 H   0  0  0  0  0  0  0  0  0  0  0  0
    2.0043   -4.9565   28.9479 H   0  0  0  0  0  0  0  0  0  0  0  0
    1.0557   -5.7925   27.7542 H   0  0  0  0  0  0  0  0  0  0  0  0
    0.2235   -3.7854   29.8098 H   0  0  0  0  0  0  0  0  0  0  0  0
   -1.0110   -4.4857   28.8100 H   0  0  0  0  0  0  0  0  0  0  0  0
   -1.1715   -4.4320   30.5920 H   0  0  0  0  0  0  0  0  0  0  0  0
  1  2  1  0
  2  3  1  0
  2  4  1  0
  4  5  1  0
  5  6  2  0
  5  7  1  0
  7  8  1  0
  8  9  1  0
  9 10  2  0
 10 11  1  0
 11 12  1  0
 12 13  1  0
 13 14  2  0
 13 15  1  0
 15 16  1  0
 16 17  1  0
 17 18  1  0
 18 19  1  0
 19 20  1  0
 11 21  1  0
 21 22  2  0
 22 23  1  0
 23 24  2  0
 24 25  1  0
 25 26  2  0
  4 27  1  0
 27 28  1  0
 27 29  1  0
 26  9  1  0
 20 15  1  0
 26 21  1  0
  1 30  1  0
  1 31  1  0
  1 32  1  0
  2 33  1  0
  3 34  1  0
  3 35  1  0
  3 36  1  0
  7 37  1  0
  7 38  1  0
 10 39  1  0
 12 40  1  0
 12 41  1  0
 16 42  1  0
 16 43  1  0
 17 44  1  0
 17 45  1  0
 18 46  1  0
 18 47  1  0
 19 48  1  0
 19 49  1  0
 20 50  1  0
 20 51  1  0
 22 52  1  0
 23 53  1  0
 24 54  1  0
 25 55  1  0
 27 56  1  0
 28 57  1  0
 28 58  1  0
 28 59  1  0
 29 60  1  0
 29 61  1  0
 29 62  1  0
M  END
>  <Energy>  (704) 
1676.2247006804498

>  <compound_id>  (704) 
11891

>  <target_id>  (704) 
1

>  <reference_id>  (704) 
40

>  <inspiration_ids>  (704) 
[40, 9]

>  <energy_score>  (704) 
1577.3721861508418

>  <distance_score>  (704) 
9.854660038074812

>  <path>  (704) 
/opt/xchem-fragalysis-2/maxwin/BulkDock/SCRATCH/511015/C11891-P40/C11891-P40.minimised.mol

>  <scratch_subdir>  (704) 
/opt/xchem-fragalysis-2/maxwin/BulkDock/SCRATCH/511015/C11891-P40

>  <fragmenstein_runtime>  (704) 
39.26670813560486

>  <fragmenstein_outcome>  (704) 
too moved

>  <fragmenstein_mode>  (704) 
expansion

>  <fragmenstein_error>  (704) 


$$$$
C11891-P9
     RDKit          3D

 62 64  0  0  0  0  0  0  0  0999 V2000
    5.8496  -17.7737   22.6068 C   0  0  0  0  0  0  0  0  0  0  0  0
    4.9889  -18.8504   23.3184 C   0  0  0  0  0  0  0  0  0  0  0  0
    4.0367  -19.4442   22.2472 C   0  0  0  0  0  0  0  0  0  0  0  0
    4.2682  -18.1007   24.5089 N   0  0  0  0  0  0  0  0  0  0  0  0
    2.9193  -17.7582   24.1323 C   0  0  0  0  0  0  0  0  0  0  0  0
    1.8895  -18.3690   24.2690 O   0  0  0  0  0  0  0  0  0  0  0  0
    2.9272  -16.3486   23.5204 C   0  0  0  0  0  0  0  0  0  0  0  0
    1.4870  -15.3849   24.0800 S   0  0  0  0  0  0  0  0  0  0  0  0
    1.3007  -14.3280   22.7018 C   0  0  0  0  0  0  0  0  0  0  0  0
    0.6097  -14.6038   21.5479 C   0  0  0  0  0  0  0  0  0  0  0  0
    0.7963  -13.5678   20.6639 N   0  0  0  0  0  0  0  0  0  0  0  0
    0.5069  -13.5859   19.2082 C   0  0  0  0  0  0  0  0  0  0  0  0
   -0.5411  -14.5715   18.6033 C   0  0  0  0  0  0  0  0  0  0  0  0
   -1.2484  -15.2568   19.2922 O   0  0  0  0  0  0  0  0  0  0  0  0
   -0.5207  -14.3894   17.1569 N   0  0  0  0  0  0  0  0  0  0  0  0
   -1.4570  -14.9163   16.0738 C   0  0  0  0  0  0  0  0  0  0  0  0
   -2.0653  -16.3325   16.0429 C   0  0  0  0  0  0  0  0  0  0  0  0
   -0.9919  -17.3696   15.8709 C   0  0  0  0  0  0  0  0  0  0  0  0
    0.1850  -16.9174   16.7033 C   0  0  0  0  0  0  0  0  0  0  0  0
    0.4354  -15.3968   16.5118 C   0  0  0  0  0  0  0  0  0  0  0  0
    1.5770  -12.5873   21.2885 C   0  0  0  0  0  0  0  0  0  0  0  0
    2.0658  -11.3505   20.8420 C   0  0  0  0  0  0  0  0  0  0  0  0
    2.9591  -10.6609   21.6738 C   0  0  0  0  0  0  0  0  0  0  0  0
    3.3468  -11.1497   22.9123 C   0  0  0  0  0  0  0  0  0  0  0  0
    2.8375  -12.3618   23.3446 C   0  0  0  0  0  0  0  0  0  0  0  0
    1.9332  -13.0807   22.5478 C   0  0  0  0  0  0  0  0  0  0  0  0
    4.8065  -19.2834   25.2990 C   0  0  0  0  0  0  0  0  0  0  0  0
    6.2760  -19.1857   25.7779 C   0  0  0  0  0  0  0  0  0  0  0  0
    4.2477  -20.7168   25.1374 C   0  0  0  0  0  0  0  0  0  0  0  0
    6.5440  -17.3067   23.3136 H   0  0  0  0  0  0  0  0  0  0  0  0
    6.4410  -18.2244   21.8020 H   0  0  0  0  0  0  0  0  0  0  0  0
    5.2403  -16.9817   22.1629 H   0  0  0  0  0  0  0  0  0  0  0  0
    5.7397  -19.6265   23.5141 H   0  0  0  0  0  0  0  0  0  0  0  0
    3.4698  -18.6706   21.7196 H   0  0  0  0  0  0  0  0  0  0  0  0
    4.6193  -19.9815   21.4897 H   0  0  0  0  0  0  0  0  0  0  0  0
    3.3230  -20.1538   22.6730 H   0  0  0  0  0  0  0  0  0  0  0  0
    3.8313  -15.8016   23.8045 H   0  0  0  0  0  0  0  0  0  0  0  0
    2.9072  -16.4636   22.4325 H   0  0  0  0  0  0  0  0  0  0  0  0
    0.0292  -15.4741   21.2746 H   0  0  0  0  0  0  0  0  0  0  0  0
    0.1583  -12.5732   18.9717 H   0  0  0  0  0  0  0  0  0  0  0  0
    1.4795  -13.7524   18.7330 H   0  0  0  0  0  0  0  0  0  0  0  0
   -1.1422  -14.5800   15.0709 H   0  0  0  0  0  0  0  0  0  0  0  0
   -2.3340  -14.2749   16.2530 H   0  0  0  0  0  0  0  0  0  0  0  0
   -2.6384  -16.5102   16.9462 H   0  0  0  0  0  0  0  0  0  0  0  0
   -2.7741  -16.4185   15.2137 H   0  0  0  0  0  0  0  0  0  0  0  0
   -1.3350  -18.3689   16.1545 H   0  0  0  0  0  0  0  0  0  0  0  0
   -0.6931  -17.4165   14.8165 H   0  0  0  0  0  0  0  0  0  0  0  0
    0.0230  -17.1399   17.7618 H   0  0  0  0  0  0  0  0  0  0  0  0
    1.0791  -17.4738   16.3987 H   0  0  0  0  0  0  0  0  0  0  0  0
    0.7041  -15.1324   15.4748 H   0  0  0  0  0  0  0  0  0  0  0  0
    1.3832  -15.2181   17.0412 H   0  0  0  0  0  0  0  0  0  0  0  0
    1.7872  -10.9449   19.8762 H   0  0  0  0  0  0  0  0  0  0  0  0
    3.3531   -9.7130   21.3517 H   0  0  0  0  0  0  0  0  0  0  0  0
    4.0334  -10.5945   23.5427 H   0  0  0  0  0  0  0  0  0  0  0  0
    3.1666  -12.7993   24.2729 H   0  0  0  0  0  0  0  0  0  0  0  0
    4.2927  -19.0212   26.2413 H   0  0  0  0  0  0  0  0  0  0  0  0
    6.5525  -18.1438   25.9700 H   0  0  0  0  0  0  0  0  0  0  0  0
    6.4046  -19.7463   26.7109 H   0  0  0  0  0  0  0  0  0  0  0  0
    6.9971  -19.5953   25.0646 H   0  0  0  0  0  0  0  0  0  0  0  0
    3.1652  -20.7020   24.9776 H   0  0  0  0  0  0  0  0  0  0  0  0
    4.7119  -21.2756   24.3197 H   0  0  0  0  0  0  0  0  0  0  0  0
    4.4364  -21.2934   26.0507 H   0  0  0  0  0  0  0  0  0  0  0  0
  1  2  1  0
  2  3  1  0
  2  4  1  0
  4  5  1  0
  5  6  2  0
  5  7  1  0
  7  8  1  0
  8  9  1  0
  9 10  2  0
 10 11  1  0
 11 12  1  0
 12 13  1  0
 13 14  2  0
 13 15  1  0
 15 16  1  0
 16 17  1  0
 17 18  1  0
 18 19  1  0
 19 20  1  0
 11 21  1  0
 21 22  2  0
 22 23  1  0
 23 24  2  0
 24 25  1  0
 25 26  2  0
  4 27  1  0
 27 28  1  0
 27 29  1  0
 26  9  1  0
 20 15  1  0
 26 21  1  0
  1 30  1  0
  1 31  1  0
  1 32  1  0
  2 33  1  0
  3 34  1  0
  3 35  1  0
  3 36  1  0
  7 37  1  0
  7 38  1  0
 10 39  1  0
 12 40  1  0
 12 41  1  0
 16 42  1  0
 16 43  1  0
 17 44  1  0
 17 45  1  0
 18 46  1  0
 18 47  1  0
 19 48  1  0
 19 49  1  0
 20 50  1  0
 20 51  1  0
 22 52  1  0
 23 53  1  0
 24 54  1  0
 25 55  1  0
 27 56  1  0
 28 57  1  0
 28 58  1  0
 28 59  1  0
 29 60  1  0
 29 61  1  0
 29 62  1  0
M  END
>  <Energy>  (705) 
216.54578586738458

>  <compound_id>  (705) 
11891

>  <target_id>  (705) 
1

>  <reference_id>  (705) 
9

>  <inspiration_ids>  (705) 
[40, 9]

>  <energy_score>  (705) 
117.69327133777733

>  <distance_score>  (705) 
12.500806097117277

>  <path>  (705) 
/opt/xchem-fragalysis-2/maxwin/BulkDock/SCRATCH/511015/C11891-P9/C11891-P9.minimised.mol

>  <scratch_subdir>  (705) 
/opt/xchem-fragalysis-2/maxwin/BulkDock/SCRATCH/511015/C11891-P9

>  <fragmenstein_runtime>  (705) 
46.978846311569214

>  <fragmenstein_outcome>  (705) 
too moved

>  <fragmenstein_mode>  (705) 
expansion

>  <fragmenstein_error>  (705) 


$$$$
C8438-P95
     RDKit          3D

 38 40  0  0  0  0  0  0  0  0999 V2000
  -10.4736  -19.6106    6.1084 O   0  0  0  0  0  0  0  0  0  0  0  0
  -10.3952  -18.8341    7.0444 C   0  0  0  0  0  0  0  0  0  0  0  0
  -11.5219  -17.0100    7.2929 C   0  0  0  0  0  0  0  0  0  0  0  0
  -11.0546  -15.2347    6.8545 O   0  0  0  0  0  0  0  0  0  0  0  0
   -9.7856  -13.9835    7.3088 C   0  0  0  0  0  0  0  0  0  0  0  0
   -9.4774  -12.8627    6.7570 C   0  0  0  0  0  0  0  0  0  0  0  0
   -9.0587  -11.8673    7.6817 C   0  0  0  0  0  0  0  0  0  0  0  0
   -9.9545  -12.5790    8.8612 O   0  0  0  0  0  0  0  0  0  0  0  0
   -9.5488  -13.7957    8.6442 N   0  0  0  0  0  0  0  0  0  0  0  0
   -9.5869  -18.8036    8.0528 N   0  0  0  0  0  0  0  0  0  0  0  0
  -10.1193  -19.5302    9.1176 C   0  0  0  0  0  0  0  0  0  0  0  0
   -9.0058  -19.9194   10.5933 C   0  0  0  0  0  0  0  0  0  0  0  0
   -7.7335  -19.7684    9.9243 C   0  0  0  0  0  0  0  0  0  0  0  0
   -6.2545  -19.2948   10.4377 C   0  0  0  0  0  0  0  0  0  0  0  0
   -5.5158  -20.4213   11.1898 C   0  0  0  0  0  0  0  0  0  0  0  0
   -4.1359  -19.8495   11.3128 C   0  0  0  0  0  0  0  0  0  0  0  0
   -3.9201  -19.3709    9.8958 C   0  0  0  0  0  0  0  0  0  0  0  0
   -5.2535  -19.0248    9.3737 N   0  0  0  0  0  0  0  0  0  0  0  0
   -8.5203  -19.5344    8.3528 C   0  0  0  0  0  0  0  0  0  0  0  0
  -12.1032  -16.8311    8.2036 H   0  0  0  0  0  0  0  0  0  0  0  0
  -12.0227  -16.9308    6.2835 H   0  0  0  0  0  0  0  0  0  0  0  0
   -9.7908  -12.4377    5.8169 H   0  0  0  0  0  0  0  0  0  0  0  0
   -9.1656  -10.8064    7.6955 H   0  0  0  0  0  0  0  0  0  0  0  0
  -10.9554  -18.8715    9.3798 H   0  0  0  0  0  0  0  0  0  0  0  0
  -10.5492  -20.4822    8.7237 H   0  0  0  0  0  0  0  0  0  0  0  0
   -9.1902  -20.9406   10.9900 H   0  0  0  0  0  0  0  0  0  0  0  0
   -9.2396  -19.2840   11.4545 H   0  0  0  0  0  0  0  0  0  0  0  0
   -7.5345  -20.6639   10.3850 H   0  0  0  0  0  0  0  0  0  0  0  0
   -6.2765  -18.4452   11.1278 H   0  0  0  0  0  0  0  0  0  0  0  0
   -5.4008  -21.3462   10.6148 H   0  0  0  0  0  0  0  0  0  0  0  0
   -6.0345  -20.6922   12.0960 H   0  0  0  0  0  0  0  0  0  0  0  0
   -3.3889  -20.5809   11.6307 H   0  0  0  0  0  0  0  0  0  0  0  0
   -4.1271  -18.9917   11.9905 H   0  0  0  0  0  0  0  0  0  0  0  0
   -3.1990  -18.5515    9.8541 H   0  0  0  0  0  0  0  0  0  0  0  0
   -3.5164  -20.1821    9.2787 H   0  0  0  0  0  0  0  0  0  0  0  0
   -5.3502  -18.0193    9.1653 H   0  0  0  0  0  0  0  0  0  0  0  0
   -8.4630  -19.7520    7.2726 H   0  0  0  0  0  0  0  0  0  0  0  0
   -7.8161  -18.6768    8.1405 H   0  0  0  0  0  0  0  0  0  0  0  0
  1  2  2  0
  2  3  1  0
  3  4  1  0
  4  5  1  0
  5  6  1  0
  6  7  2  0
  7  8  1  0
  8  9  1  0
  2 10  1  0
 10 11  1  0
 11 12  1  0
 12 13  1  0
 13 14  1  0
 14 15  1  0
 15 16  1  0
 16 17  1  0
 17 18  1  0
 13 19  1  0
  9  5  2  0
 19 10  1  0
 18 14  1  0
  3 20  1  0
  3 21  1  0
  6 22  1  0
  7 23  1  0
 11 24  1  0
 11 25  1  0
 12 26  1  0
 12 27  1  0
 13 28  1  0
 14 29  1  0
 15 30  1  0
 15 31  1  0
 16 32  1  0
 16 33  1  0
 17 34  1  0
 17 35  1  0
 18 36  1  0
 19 37  1  0
 19 38  1  0
M  END
>  <Energy>  (706) 
588.91784573401674

>  <compound_id>  (706) 
8438

>  <target_id>  (706) 
1

>  <reference_id>  (706) 
95

>  <inspiration_ids>  (706) 
[95, 30]

>  <energy_score>  (706) 
536.8388075979814

>  <distance_score>  (706) 
9.412736118181588

>  <path>  (706) 
/opt/xchem-fragalysis-2/maxwin/BulkDock/SCRATCH/511015/C8438-P95/C8438-P95.minimised.mol

>  <scratch_subdir>  (706) 
/opt/xchem-fragalysis-2/maxwin/BulkDock/SCRATCH/511015/C8438-P95

>  <fragmenstein_runtime>  (706) 
12.224425077438354

>  <fragmenstein_outcome>  (706) 
too moved

>  <fragmenstein_mode>  (706) 
expansion

>  <fragmenstein_error>  (706) 


$$$$
C8438-P30
     RDKit          3D

 38 40  0  0  0  0  0  0  0  0999 V2000
  -12.2554  -20.3466   13.6119 O   0  0  0  0  0  0  0  0  0  0  0  0
  -11.0892  -20.1617   13.7391 C   0  0  0  0  0  0  0  0  0  0  0  0
  -10.7939  -18.3617   14.4107 C   0  0  0  0  0  0  0  0  0  0  0  0
  -10.2513  -17.1831   13.7147 O   0  0  0  0  0  0  0  0  0  0  0  0
  -10.4414  -15.9227   14.2180 C   0  0  0  0  0  0  0  0  0  0  0  0
  -10.3786  -15.4065   15.5210 C   0  0  0  0  0  0  0  0  0  0  0  0
  -10.4650  -14.0415   15.3506 C   0  0  0  0  0  0  0  0  0  0  0  0
  -10.5701  -13.7501   14.0339 O   0  0  0  0  0  0  0  0  0  0  0  0
  -10.5766  -14.9328   13.3229 N   0  0  0  0  0  0  0  0  0  0  0  0
  -10.0060  -21.2203   13.2776 N   0  0  0  0  0  0  0  0  0  0  0  0
   -9.6515  -22.2165   14.4440 C   0  0  0  0  0  0  0  0  0  0  0  0
  -10.1375  -23.6889   14.3166 C   0  0  0  0  0  0  0  0  0  0  0  0
  -10.9803  -23.5997   13.1116 C   0  0  0  0  0  0  0  0  0  0  0  0
  -11.0599  -24.8260   12.2035 C   0  0  0  0  0  0  0  0  0  0  0  0
  -11.6257  -26.0647   12.8842 C   0  0  0  0  0  0  0  0  0  0  0  0
  -11.0554  -27.2294   12.0852 C   0  0  0  0  0  0  0  0  0  0  0  0
  -10.0979  -26.6043   11.0828 C   0  0  0  0  0  0  0  0  0  0  0  0
   -9.7776  -25.2904   11.6446 N   0  0  0  0  0  0  0  0  0  0  0  0
  -10.1276  -22.5110   12.5439 C   0  0  0  0  0  0  0  0  0  0  0  0
  -11.7336  -17.9450   14.7102 H   0  0  0  0  0  0  0  0  0  0  0  0
  -10.3865  -18.4126   15.4440 H   0  0  0  0  0  0  0  0  0  0  0  0
  -10.2419  -15.9374   16.4481 H   0  0  0  0  0  0  0  0  0  0  0  0
  -10.4505  -13.1926   16.0168 H   0  0  0  0  0  0  0  0  0  0  0  0
   -9.8433  -21.7688   15.4069 H   0  0  0  0  0  0  0  0  0  0  0  0
   -8.5548  -22.2790   14.4103 H   0  0  0  0  0  0  0  0  0  0  0  0
  -10.5924  -24.1503   15.1774 H   0  0  0  0  0  0  0  0  0  0  0  0
   -9.3066  -24.3613   14.1396 H   0  0  0  0  0  0  0  0  0  0  0  0
  -11.9961  -23.2676   13.3219 H   0  0  0  0  0  0  0  0  0  0  0  0
  -11.7053  -24.5618   11.3536 H   0  0  0  0  0  0  0  0  0  0  0  0
  -11.3053  -26.1508   13.9285 H   0  0  0  0  0  0  0  0  0  0  0  0
  -12.7207  -26.0664   12.8710 H   0  0  0  0  0  0  0  0  0  0  0  0
  -10.5270  -27.9172   12.7553 H   0  0  0  0  0  0  0  0  0  0  0  0
  -11.8445  -27.7945   11.5785 H   0  0  0  0  0  0  0  0  0  0  0  0
   -9.1994  -27.2115   10.9365 H   0  0  0  0  0  0  0  0  0  0  0  0
  -10.5824  -26.4819   10.1071 H   0  0  0  0  0  0  0  0  0  0  0  0
   -9.1066  -25.4431   12.3993 H   0  0  0  0  0  0  0  0  0  0  0  0
   -9.0889  -22.8493   12.4273 H   0  0  0  0  0  0  0  0  0  0  0  0
  -10.4070  -22.3389   11.5135 H   0  0  0  0  0  0  0  0  0  0  0  0
  1  2  2  0
  2  3  1  0
  3  4  1  0
  4  5  1  0
  5  6  1  0
  6  7  2  0
  7  8  1  0
  8  9  1  0
  2 10  1  0
 10 11  1  0
 11 12  1  0
 12 13  1  0
 13 14  1  0
 14 15  1  0
 15 16  1  0
 16 17  1  0
 17 18  1  0
 13 19  1  0
  9  5  2  0
 19 10  1  0
 18 14  1  0
  3 20  1  0
  3 21  1  0
  6 22  1  0
  7 23  1  0
 11 24  1  0
 11 25  1  0
 12 26  1  0
 12 27  1  0
 13 28  1  0
 14 29  1  0
 15 30  1  0
 15 31  1  0
 16 32  1  0
 16 33  1  0
 17 34  1  0
 17 35  1  0
 18 36  1  0
 19 37  1  0
 19 38  1  0
M  END
>  <Energy>  (707) 
174.27493948174313

>  <compound_id>  (707) 
8438

>  <target_id>  (707) 
1

>  <reference_id>  (707) 
30

>  <inspiration_ids>  (707) 
[95, 30]

>  <energy_score>  (707) 
122.1959013457141

>  <distance_score>  (707) 
9.003605611974262

>  <path>  (707) 
/opt/xchem-fragalysis-2/maxwin/BulkDock/SCRATCH/511015/C8438-P30/C8438-P30.minimised.mol

>  <scratch_subdir>  (707) 
/opt/xchem-fragalysis-2/maxwin/BulkDock/SCRATCH/511015/C8438-P30

>  <fragmenstein_runtime>  (707) 
9.030687808990479

>  <fragmenstein_outcome>  (707) 
too moved

>  <fragmenstein_mode>  (707) 
expansion

>  <fragmenstein_error>  (707) 


$$$$
C8439-P95
     RDKit          3D

 41 43  0  0  0  0  0  0  0  0999 V2000
  -13.9526  -26.9153   15.1532 O   0  0  0  0  0  0  0  0  0  0  0  0
  -15.0092  -26.6328   14.7108 C   0  0  0  0  0  0  0  0  0  0  0  0
  -16.2910  -27.4449   14.9963 C   0  0  0  0  0  0  0  0  0  0  0  0
  -16.2733  -28.1492   16.2301 O   0  0  0  0  0  0  0  0  0  0  0  0
  -16.9085  -27.4959   17.2633 C   0  0  0  0  0  0  0  0  0  0  0  0
  -17.0387  -28.2071   18.4471 C   0  0  0  0  0  0  0  0  0  0  0  0
  -17.7193  -27.6136   19.5055 C   0  0  0  0  0  0  0  0  0  0  0  0
  -18.2387  -26.3344   19.3428 C   0  0  0  0  0  0  0  0  0  0  0  0
  -18.0446  -25.6961   18.1277 C   0  0  0  0  0  0  0  0  0  0  0  0
  -17.3895  -26.2498   17.0848 N   0  0  0  0  0  0  0  0  0  0  0  0
  -15.4050  -25.5404   13.7156 N   0  0  0  0  0  0  0  0  0  0  0  0
  -15.3443  -26.0454   12.2984 C   0  0  0  0  0  0  0  0  0  0  0  0
  -13.9304  -26.2288   11.8162 C   0  0  0  0  0  0  0  0  0  0  0  0
  -13.4258  -24.8787   12.1767 C   0  0  0  0  0  0  0  0  0  0  0  0
  -12.0420  -24.8871   12.8154 C   0  0  0  0  0  0  0  0  0  0  0  0
  -10.9508  -25.4956   11.9552 C   0  0  0  0  0  0  0  0  0  0  0  0
   -9.6923  -24.9678   12.6126 C   0  0  0  0  0  0  0  0  0  0  0  0
  -10.0912  -23.6349   13.2240 C   0  0  0  0  0  0  0  0  0  0  0  0
  -11.5336  -23.5264   12.9994 N   0  0  0  0  0  0  0  0  0  0  0  0
  -14.5799  -24.4350   13.0828 C   0  0  0  0  0  0  0  0  0  0  0  0
  -17.1950  -26.8427   14.8440 H   0  0  0  0  0  0  0  0  0  0  0  0
  -16.3267  -28.2190   14.2197 H   0  0  0  0  0  0  0  0  0  0  0  0
  -16.6320  -29.2081   18.5307 H   0  0  0  0  0  0  0  0  0  0  0  0
  -17.8504  -28.1450   20.4426 H   0  0  0  0  0  0  0  0  0  0  0  0
  -18.7693  -25.8327   20.1446 H   0  0  0  0  0  0  0  0  0  0  0  0
  -18.4144  -24.6877   17.9618 H   0  0  0  0  0  0  0  0  0  0  0  0
  -15.8263  -27.0319   12.2917 H   0  0  0  0  0  0  0  0  0  0  0  0
  -15.9785  -25.4405   11.6263 H   0  0  0  0  0  0  0  0  0  0  0  0
  -13.8786  -26.4385   10.7440 H   0  0  0  0  0  0  0  0  0  0  0  0
  -13.4265  -27.0378   12.3556 H   0  0  0  0  0  0  0  0  0  0  0  0
  -13.4123  -24.2332   11.2877 H   0  0  0  0  0  0  0  0  0  0  0  0
  -12.0783  -25.3929   13.7889 H   0  0  0  0  0  0  0  0  0  0  0  0
  -10.9751  -26.5896   11.9476 H   0  0  0  0  0  0  0  0  0  0  0  0
  -11.0140  -25.1455   10.9173 H   0  0  0  0  0  0  0  0  0  0  0  0
   -8.8739  -24.8771   11.8930 H   0  0  0  0  0  0  0  0  0  0  0  0
   -9.3824  -25.6636   13.4008 H   0  0  0  0  0  0  0  0  0  0  0  0
   -9.8632  -23.6148   14.2939 H   0  0  0  0  0  0  0  0  0  0  0  0
   -9.5659  -22.7978   12.7535 H   0  0  0  0  0  0  0  0  0  0  0  0
  -11.6796  -22.9683   12.1614 H   0  0  0  0  0  0  0  0  0  0  0  0
  -15.2570  -23.7231   12.5818 H   0  0  0  0  0  0  0  0  0  0  0  0
  -14.1791  -23.8751   13.9364 H   0  0  0  0  0  0  0  0  0  0  0  0
  1  2  2  0
  2  3  1  0
  3  4  1  0
  4  5  1  0
  5  6  2  0
  6  7  1  0
  7  8  2  0
  8  9  1  0
  9 10  2  0
  2 11  1  0
 11 12  1  0
 12 13  1  0
 13 14  1  0
 14 15  1  0
 15 16  1  0
 16 17  1  0
 17 18  1  0
 18 19  1  0
 14 20  1  0
 10  5  1  0
 20 11  1  0
 19 15  1  0
  3 21  1  0
  3 22  1  0
  6 23  1  0
  7 24  1  0
  8 25  1  0
  9 26  1  0
 12 27  1  0
 12 28  1  0
 13 29  1  0
 13 30  1  0
 14 31  1  0
 15 32  1  0
 16 33  1  0
 16 34  1  0
 17 35  1  0
 17 36  1  0
 18 37  1  0
 18 38  1  0
 19 39  1  0
 20 40  1  0
 20 41  1  0
M  END
>  <Energy>  (708) 
97.72604838240099

>  <compound_id>  (708) 
8439

>  <target_id>  (708) 
1

>  <reference_id>  (708) 
95

>  <inspiration_ids>  (708) 
[95, 30]

>  <energy_score>  (708) 
28.66373875040466

>  <distance_score>  (708) 
3.1061581523330455

>  <path>  (708) 
/opt/xchem-fragalysis-2/maxwin/BulkDock/SCRATCH/511015/C8439-P95/C8439-P95.minimised.mol

>  <scratch_subdir>  (708) 
/opt/xchem-fragalysis-2/maxwin/BulkDock/SCRATCH/511015/C8439-P95

>  <fragmenstein_runtime>  (708) 
3.8845090866088867

>  <fragmenstein_outcome>  (708) 
too moved

>  <fragmenstein_mode>  (708) 
expansion

>  <fragmenstein_error>  (708) 


$$$$
C8439-P30
     RDKit          3D

 41 43  0  0  0  0  0  0  0  0999 V2000
  -14.5229  -28.3210   14.2221 O   0  0  0  0  0  0  0  0  0  0  0  0
  -15.3882  -27.5397   14.0433 C   0  0  0  0  0  0  0  0  0  0  0  0
  -16.8877  -27.8735   14.2659 C   0  0  0  0  0  0  0  0  0  0  0  0
  -17.5331  -27.1258   15.3080 O   0  0  0  0  0  0  0  0  0  0  0  0
  -16.6898  -27.0616   16.3996 C   0  0  0  0  0  0  0  0  0  0  0  0
  -16.1573  -25.8233   16.7226 C   0  0  0  0  0  0  0  0  0  0  0  0
  -15.0773  -25.7914   17.5952 C   0  0  0  0  0  0  0  0  0  0  0  0
  -14.6242  -26.9770   18.1630 C   0  0  0  0  0  0  0  0  0  0  0  0
  -15.2760  -28.1553   17.8296 C   0  0  0  0  0  0  0  0  0  0  0  0
  -16.3060  -28.2270   16.9604 N   0  0  0  0  0  0  0  0  0  0  0  0
  -15.3212  -26.0576   13.6778 N   0  0  0  0  0  0  0  0  0  0  0  0
  -15.3223  -25.8626   12.1795 C   0  0  0  0  0  0  0  0  0  0  0  0
  -13.9695  -26.1985   11.5599 C   0  0  0  0  0  0  0  0  0  0  0  0
  -13.0742  -25.7566   12.6713 C   0  0  0  0  0  0  0  0  0  0  0  0
  -11.9492  -24.8153   12.2739 C   0  0  0  0  0  0  0  0  0  0  0  0
  -10.7097  -25.5363   11.7435 C   0  0  0  0  0  0  0  0  0  0  0  0
   -9.5530  -24.9709   12.5561 C   0  0  0  0  0  0  0  0  0  0  0  0
  -10.0913  -23.6712   13.1097 C   0  0  0  0  0  0  0  0  0  0  0  0
  -11.4594  -24.0677   13.4356 N   0  0  0  0  0  0  0  0  0  0  0  0
  -14.1485  -25.1424   13.5393 C   0  0  0  0  0  0  0  0  0  0  0  0
  -17.4300  -27.6780   13.3347 H   0  0  0  0  0  0  0  0  0  0  0  0
  -16.9892  -28.9470   14.4685 H   0  0  0  0  0  0  0  0  0  0  0  0
  -16.5007  -24.9247   16.2231 H   0  0  0  0  0  0  0  0  0  0  0  0
  -14.5783  -24.8490   17.8016 H   0  0  0  0  0  0  0  0  0  0  0  0
  -13.7728  -26.9828   18.8327 H   0  0  0  0  0  0  0  0  0  0  0  0
  -14.9577  -29.1079   18.2416 H   0  0  0  0  0  0  0  0  0  0  0  0
  -16.0649  -26.5562   11.7624 H   0  0  0  0  0  0  0  0  0  0  0  0
  -15.7027  -24.8637   11.9041 H   0  0  0  0  0  0  0  0  0  0  0  0
  -13.8255  -25.6742   10.6105 H   0  0  0  0  0  0  0  0  0  0  0  0
  -13.8664  -27.2740   11.3783 H   0  0  0  0  0  0  0  0  0  0  0  0
  -12.6584  -26.6338   13.1857 H   0  0  0  0  0  0  0  0  0  0  0  0
  -12.3082  -24.1052   11.5230 H   0  0  0  0  0  0  0  0  0  0  0  0
  -10.7556  -26.6251   11.8543 H   0  0  0  0  0  0  0  0  0  0  0  0
  -10.5738  -25.3225   10.6793 H   0  0  0  0  0  0  0  0  0  0  0  0
   -8.6451  -24.8554   11.9613 H   0  0  0  0  0  0  0  0  0  0  0  0
   -9.3229  -25.6653   13.3743 H   0  0  0  0  0  0  0  0  0  0  0  0
   -9.5571  -23.3224   13.9962 H   0  0  0  0  0  0  0  0  0  0  0  0
  -10.0893  -22.8720   12.3629 H   0  0  0  0  0  0  0  0  0  0  0  0
  -11.3972  -24.7067   14.2309 H   0  0  0  0  0  0  0  0  0  0  0  0
  -14.4385  -24.1053   13.2969 H   0  0  0  0  0  0  0  0  0  0  0  0
  -13.7542  -25.0784   14.5625 H   0  0  0  0  0  0  0  0  0  0  0  0
  1  2  2  0
  2  3  1  0
  3  4  1  0
  4  5  1  0
  5  6  2  0
  6  7  1  0
  7  8  2  0
  8  9  1  0
  9 10  2  0
  2 11  1  0
 11 12  1  0
 12 13  1  0
 13 14  1  0
 14 15  1  0
 15 16  1  0
 16 17  1  0
 17 18  1  0
 18 19  1  0
 14 20  1  0
 10  5  1  0
 20 11  1  0
 19 15  1  0
  3 21  1  0
  3 22  1  0
  6 23  1  0
  7 24  1  0
  8 25  1  0
  9 26  1  0
 12 27  1  0
 12 28  1  0
 13 29  1  0
 13 30  1  0
 14 31  1  0
 15 32  1  0
 16 33  1  0
 16 34  1  0
 17 35  1  0
 17 36  1  0
 18 37  1  0
 18 38  1  0
 19 39  1  0
 20 40  1  0
 20 41  1  0
M  END
>  <Energy>  (709) 
104.4833641670854

>  <compound_id>  (709) 
8439

>  <target_id>  (709) 
1

>  <reference_id>  (709) 
30

>  <inspiration_ids>  (709) 
[95, 30]

>  <energy_score>  (709) 
35.42105453508702

>  <distance_score>  (709) 
3.257767926981264

>  <path>  (709) 
/opt/xchem-fragalysis-2/maxwin/BulkDock/SCRATCH/511015/C8439-P30/C8439-P30.minimised.mol

>  <scratch_subdir>  (709) 
/opt/xchem-fragalysis-2/maxwin/BulkDock/SCRATCH/511015/C8439-P30

>  <fragmenstein_runtime>  (709) 
3.4452404975891113

>  <fragmenstein_outcome>  (709) 
too moved

>  <fragmenstein_mode>  (709) 
expansion

>  <fragmenstein_error>  (709) 


$$$$
C8447-P95
     RDKit          3D

 45 47  0  0  0  0  0  0  0  0999 V2000
   -3.7960  -17.4617    3.8944 O   0  0  0  0  0  0  0  0  0  0  0  0
   -2.9041  -17.5821    4.6829 C   0  0  0  0  0  0  0  0  0  0  0  0
   -1.6288  -16.9132    4.7678 N   0  0  0  0  0  0  0  0  0  0  0  0
   -0.9820  -15.9461    3.8617 C   0  0  0  0  0  0  0  0  0  0  0  0
   -1.5291  -14.5004    3.9391 C   0  0  0  0  0  0  0  0  0  0  0  0
   -0.9064  -13.4852    2.9434 C   0  0  0  0  0  0  0  0  0  0  0  0
   -1.6611  -12.1255    2.9080 C   0  0  0  0  0  0  0  0  0  0  0  0
   -1.6515  -11.3219    4.2038 C   0  0  0  0  0  0  0  0  0  0  0  0
   -1.8628   -9.8618    3.7989 C   0  0  0  0  0  0  0  0  0  0  0  0
   -1.8110   -9.8712    2.2844 C   0  0  0  0  0  0  0  0  0  0  0  0
   -1.1360  -11.1346    1.9611 N   0  0  0  0  0  0  0  0  0  0  0  0
   -3.1371  -18.6140    5.7662 C   0  0  0  0  0  0  0  0  0  0  0  0
   -2.6026  -18.8119    7.0344 C   0  0  0  0  0  0  0  0  0  0  0  0
   -3.2634  -19.9121    7.5482 N   0  0  0  0  0  0  0  0  0  0  0  0
   -2.9968  -20.6232    8.7804 C   0  0  0  0  0  0  0  0  0  0  0  0
   -3.4304  -22.1000    8.8837 C   0  0  0  0  0  0  0  0  0  0  0  0
   -3.7862  -22.3035   10.3526 C   0  0  0  0  0  0  0  0  0  0  0  0
   -3.3975  -21.0529   11.0085 N   0  0  0  0  0  0  0  0  0  0  0  0
   -3.6149  -19.9971   10.0237 C   0  0  0  0  0  0  0  0  0  0  0  0
   -4.1408  -20.3768    6.6542 N   0  0  0  0  0  0  0  0  0  0  0  0
   -4.1162  -19.5852    5.5952 N   0  0  0  0  0  0  0  0  0  0  0  0
   -1.0894  -17.3256    5.5183 H   0  0  0  0  0  0  0  0  0  0  0  0
   -1.1229  -16.3289    2.8453 H   0  0  0  0  0  0  0  0  0  0  0  0
    0.0880  -15.9562    4.0920 H   0  0  0  0  0  0  0  0  0  0  0  0
   -1.3261  -14.1138    4.9375 H   0  0  0  0  0  0  0  0  0  0  0  0
   -2.6172  -14.5233    3.8056 H   0  0  0  0  0  0  0  0  0  0  0  0
    0.1468  -13.3237    3.2035 H   0  0  0  0  0  0  0  0  0  0  0  0
   -0.9237  -13.9215    1.9370 H   0  0  0  0  0  0  0  0  0  0  0  0
   -2.6815  -12.3599    2.5983 H   0  0  0  0  0  0  0  0  0  0  0  0
   -2.4324  -11.6710    4.8737 H   0  0  0  0  0  0  0  0  0  0  0  0
   -0.6896  -11.4207    4.7213 H   0  0  0  0  0  0  0  0  0  0  0  0
   -2.8131   -9.4590    4.1536 H   0  0  0  0  0  0  0  0  0  0  0  0
   -1.0617   -9.2428    4.2188 H   0  0  0  0  0  0  0  0  0  0  0  0
   -2.8226   -9.8655    1.8624 H   0  0  0  0  0  0  0  0  0  0  0  0
   -1.2649   -9.0121    1.8845 H   0  0  0  0  0  0  0  0  0  0  0  0
   -1.3166  -11.4090    0.9973 H   0  0  0  0  0  0  0  0  0  0  0  0
   -1.8438  -18.2949    7.6011 H   0  0  0  0  0  0  0  0  0  0  0  0
   -1.9013  -20.6003    8.8874 H   0  0  0  0  0  0  0  0  0  0  0  0
   -4.2878  -22.3523    8.2554 H   0  0  0  0  0  0  0  0  0  0  0  0
   -2.6028  -22.7523    8.5817 H   0  0  0  0  0  0  0  0  0  0  0  0
   -4.8613  -22.4763   10.4615 H   0  0  0  0  0  0  0  0  0  0  0  0
   -3.2551  -23.1563   10.7854 H   0  0  0  0  0  0  0  0  0  0  0  0
   -3.9522  -20.9430   11.8649 H   0  0  0  0  0  0  0  0  0  0  0  0
   -4.6803  -19.7792    9.8992 H   0  0  0  0  0  0  0  0  0  0  0  0
   -3.1052  -19.0736   10.3147 H   0  0  0  0  0  0  0  0  0  0  0  0
  1  2  2  0
  2  3  1  0
  3  4  1  0
  4  5  1  0
  5  6  1  0
  6  7  1  0
  7  8  1  0
  8  9  1  0
  9 10  1  0
 10 11  1  0
  2 12  1  0
 12 13  2  0
 13 14  1  0
 14 15  1  0
 15 16  1  0
 16 17  1  0
 17 18  1  0
 18 19  1  0
 14 20  1  0
 20 21  2  0
 11  7  1  0
 21 12  1  0
 19 15  1  0
  3 22  1  0
  4 23  1  0
  4 24  1  0
  5 25  1  0
  5 26  1  0
  6 27  1  0
  6 28  1  0
  7 29  1  0
  8 30  1  0
  8 31  1  0
  9 32  1  0
  9 33  1  0
 10 34  1  0
 10 35  1  0
 11 36  1  0
 13 37  1  0
 15 38  1  0
 16 39  1  0
 16 40  1  0
 17 41  1  0
 17 42  1  0
 18 43  1  0
 19 44  1  0
 19 45  1  0
M  END
>  <Energy>  (710) 
30.783901554133791

>  <compound_id>  (710) 
8447

>  <target_id>  (710) 
1

>  <reference_id>  (710) 
95

>  <inspiration_ids>  (710) 
[95, 30]

>  <energy_score>  (710) 
-5.594276139664856

>  <distance_score>  (710) 
12.12415634933358

>  <path>  (710) 
/opt/xchem-fragalysis-2/maxwin/BulkDock/SCRATCH/511015/C8447-P95/C8447-P95.minimised.mol

>  <scratch_subdir>  (710) 
/opt/xchem-fragalysis-2/maxwin/BulkDock/SCRATCH/511015/C8447-P95

>  <fragmenstein_runtime>  (710) 
19.63787341117859

>  <fragmenstein_outcome>  (710) 
too moved

>  <fragmenstein_mode>  (710) 
expansion

>  <fragmenstein_error>  (710) 


$$$$
C8447-P30
     RDKit          3D

 45 47  0  0  0  0  0  0  0  0999 V2000
   -8.8713  -20.2556   10.1693 O   0  0  0  0  0  0  0  0  0  0  0  0
   -7.8935  -20.2416   10.8371 C   0  0  0  0  0  0  0  0  0  0  0  0
   -6.5942  -19.5335   10.5976 N   0  0  0  0  0  0  0  0  0  0  0  0
   -6.0600  -18.6025    9.2738 C   0  0  0  0  0  0  0  0  0  0  0  0
   -7.2396  -17.3950    8.2332 C   0  0  0  0  0  0  0  0  0  0  0  0
   -7.1291  -15.2426    8.5802 C   0  0  0  0  0  0  0  0  0  0  0  0
   -8.8580  -14.1329    9.0950 C   0  0  0  0  0  0  0  0  0  0  0  0
   -9.8125  -13.1621   10.3149 C   0  0  0  0  0  0  0  0  0  0  0  0
  -10.3551  -12.1782    9.4190 C   0  0  0  0  0  0  0  0  0  0  0  0
   -9.1212  -12.0591    7.9154 C   0  0  0  0  0  0  0  0  0  0  0  0
   -9.5046  -13.4495    7.7747 N   0  0  0  0  0  0  0  0  0  0  0  0
   -8.1052  -21.1731   12.1124 C   0  0  0  0  0  0  0  0  0  0  0  0
   -7.6476  -22.4123   12.6037 C   0  0  0  0  0  0  0  0  0  0  0  0
   -8.8556  -23.1416   12.9193 N   0  0  0  0  0  0  0  0  0  0  0  0
   -9.2904  -24.5324   12.8463 C   0  0  0  0  0  0  0  0  0  0  0  0
   -8.5976  -25.4786   11.8716 C   0  0  0  0  0  0  0  0  0  0  0  0
   -9.5237  -26.6852   11.8602 C   0  0  0  0  0  0  0  0  0  0  0  0
  -10.8747  -26.1711   12.0977 N   0  0  0  0  0  0  0  0  0  0  0  0
  -10.7501  -24.7314   12.3981 C   0  0  0  0  0  0  0  0  0  0  0  0
   -9.8087  -22.2834   13.1641 N   0  0  0  0  0  0  0  0  0  0  0  0
   -9.4856  -21.2617   12.4309 N   0  0  0  0  0  0  0  0  0  0  0  0
   -5.9937  -19.6627   11.4048 H   0  0  0  0  0  0  0  0  0  0  0  0
   -5.0773  -18.3909    9.6284 H   0  0  0  0  0  0  0  0  0  0  0  0
   -5.6117  -19.2152    8.4958 H   0  0  0  0  0  0  0  0  0  0  0  0
   -8.1371  -17.9995    8.3230 H   0  0  0  0  0  0  0  0  0  0  0  0
   -7.0364  -17.8570    7.2073 H   0  0  0  0  0  0  0  0  0  0  0  0
   -6.2125  -14.7505    8.9504 H   0  0  0  0  0  0  0  0  0  0  0  0
   -7.2613  -14.9145    7.5611 H   0  0  0  0  0  0  0  0  0  0  0  0
   -8.1694  -13.5200    9.6781 H   0  0  0  0  0  0  0  0  0  0  0  0
  -10.5730  -13.6299   10.9290 H   0  0  0  0  0  0  0  0  0  0  0  0
   -9.1596  -12.7383   11.1041 H   0  0  0  0  0  0  0  0  0  0  0  0
  -10.3540  -11.1731    9.8449 H   0  0  0  0  0  0  0  0  0  0  0  0
  -11.2659  -11.7554    9.6684 H   0  0  0  0  0  0  0  0  0  0  0  0
   -9.3489  -11.2436    7.1608 H   0  0  0  0  0  0  0  0  0  0  0  0
   -8.2230  -11.4812    8.0345 H   0  0  0  0  0  0  0  0  0  0  0  0
   -9.0064  -13.8801    7.0187 H   0  0  0  0  0  0  0  0  0  0  0  0
   -6.7486  -22.9676   12.3809 H   0  0  0  0  0  0  0  0  0  0  0  0
   -9.2516  -24.9271   13.8687 H   0  0  0  0  0  0  0  0  0  0  0  0
   -8.5586  -25.0688   10.8584 H   0  0  0  0  0  0  0  0  0  0  0  0
   -7.5763  -25.7427   12.1473 H   0  0  0  0  0  0  0  0  0  0  0  0
   -9.4600  -27.2331   10.9148 H   0  0  0  0  0  0  0  0  0  0  0  0
   -9.2606  -27.3751   12.6696 H   0  0  0  0  0  0  0  0  0  0  0  0
  -11.4630  -26.2969   11.2730 H   0  0  0  0  0  0  0  0  0  0  0  0
  -11.4678  -24.4449   13.1739 H   0  0  0  0  0  0  0  0  0  0  0  0
  -10.9724  -24.1503   11.4962 H   0  0  0  0  0  0  0  0  0  0  0  0
  1  2  2  0
  2  3  1  0
  3  4  1  0
  4  5  1  0
  5  6  1  0
  6  7  1  0
  7  8  1  0
  8  9  1  0
  9 10  1  0
 10 11  1  0
  2 12  1  0
 12 13  2  0
 13 14  1  0
 14 15  1  0
 15 16  1  0
 16 17  1  0
 17 18  1  0
 18 19  1  0
 14 20  1  0
 20 21  2  0
 11  7  1  0
 21 12  1  0
 19 15  1  0
  3 22  1  0
  4 23  1  0
  4 24  1  0
  5 25  1  0
  5 26  1  0
  6 27  1  0
  6 28  1  0
  7 29  1  0
  8 30  1  0
  8 31  1  0
  9 32  1  0
  9 33  1  0
 10 34  1  0
 10 35  1  0
 11 36  1  0
 13 37  1  0
 15 38  1  0
 16 39  1  0
 16 40  1  0
 17 41  1  0
 17 42  1  0
 18 43  1  0
 19 44  1  0
 19 45  1  0
M  END
>  <Energy>  (711) 
591.47862397631161

>  <compound_id>  (711) 
8447

>  <target_id>  (711) 
1

>  <reference_id>  (711) 
30

>  <inspiration_ids>  (711) 
[95, 30]

>  <energy_score>  (711) 
555.1004462825085

>  <distance_score>  (711) 
7.991029827178768

>  <path>  (711) 
/opt/xchem-fragalysis-2/maxwin/BulkDock/SCRATCH/511015/C8447-P30/C8447-P30.minimised.mol

>  <scratch_subdir>  (711) 
/opt/xchem-fragalysis-2/maxwin/BulkDock/SCRATCH/511015/C8447-P30

>  <fragmenstein_runtime>  (711) 
20.09680962562561

>  <fragmenstein_outcome>  (711) 
too moved

>  <fragmenstein_mode>  (711) 
expansion

>  <fragmenstein_error>  (711) 


$$$$
C8449-P95
     RDKit          3D

 42 44  0  0  0  0  0  0  0  0999 V2000
   -9.8350  -12.4759   11.2829 O   0  0  0  0  0  0  0  0  0  0  0  0
   -9.6339  -12.5711   12.4543 C   0  0  0  0  0  0  0  0  0  0  0  0
   -9.7611  -13.8081   13.3684 N   0  0  0  0  0  0  0  0  0  0  0  0
  -10.3420  -15.4036   13.0349 C   0  0  0  0  0  0  0  0  0  0  0  0
   -9.5793  -17.1467   12.9871 C   0  0  0  0  0  0  0  0  0  0  0  0
   -9.8480  -19.0274   12.5216 C   0  0  0  0  0  0  0  0  0  0  0  0
  -10.5758  -20.4219   13.4207 C   0  0  0  0  0  0  0  0  0  0  0  0
  -10.1058  -21.7670   12.9604 C   0  0  0  0  0  0  0  0  0  0  0  0
   -9.1996  -21.3680   11.8543 C   0  0  0  0  0  0  0  0  0  0  0  0
   -9.0690  -19.8911   11.6023 N   0  0  0  0  0  0  0  0  0  0  0  0
   -9.2719  -10.9619   13.1431 C   0  0  0  0  0  0  0  0  0  0  0  0
   -8.4778   -9.7412   13.0850 C   0  0  0  0  0  0  0  0  0  0  0  0
   -8.6945   -9.0286   11.5651 N   0  0  0  0  0  0  0  0  0  0  0  0
   -7.6021   -8.3636   10.2338 C   0  0  0  0  0  0  0  0  0  0  0  0
   -7.8254   -7.8697    8.5097 C   0  0  0  0  0  0  0  0  0  0  0  0
   -7.8181   -5.9374    7.9422 C   0  0  0  0  0  0  0  0  0  0  0  0
   -6.9573   -5.7520    9.3254 N   0  0  0  0  0  0  0  0  0  0  0  0
   -6.3918   -7.2659   10.0058 C   0  0  0  0  0  0  0  0  0  0  0  0
   -9.9762   -9.4994   11.5129 N   0  0  0  0  0  0  0  0  0  0  0  0
  -10.2550  -10.1237   12.6532 N   0  0  0  0  0  0  0  0  0  0  0  0
   -9.4391  -13.5708   14.2922 H   0  0  0  0  0  0  0  0  0  0  0  0
  -11.2439  -15.4248   13.6342 H   0  0  0  0  0  0  0  0  0  0  0  0
  -10.6549  -15.1994   12.0547 H   0  0  0  0  0  0  0  0  0  0  0  0
   -8.6090  -17.0623   13.4768 H   0  0  0  0  0  0  0  0  0  0  0  0
  -10.3295  -17.3301   13.7061 H   0  0  0  0  0  0  0  0  0  0  0  0
  -10.7453  -18.8360   13.1592 H   0  0  0  0  0  0  0  0  0  0  0  0
  -10.2986  -20.3456   14.4670 H   0  0  0  0  0  0  0  0  0  0  0  0
  -11.6507  -20.4194   13.3176 H   0  0  0  0  0  0  0  0  0  0  0  0
   -9.5750  -22.3064   13.7542 H   0  0  0  0  0  0  0  0  0  0  0  0
  -10.9247  -22.4147   12.6322 H   0  0  0  0  0  0  0  0  0  0  0  0
   -8.2044  -21.7640   12.0858 H   0  0  0  0  0  0  0  0  0  0  0  0
   -9.6538  -21.8352   10.9917 H   0  0  0  0  0  0  0  0  0  0  0  0
   -8.0668  -19.7095   11.6214 H   0  0  0  0  0  0  0  0  0  0  0  0
   -7.6117   -9.3548   13.6068 H   0  0  0  0  0  0  0  0  0  0  0  0
   -7.0689   -7.9950   11.1051 H   0  0  0  0  0  0  0  0  0  0  0  0
   -6.9857   -8.3543    7.9978 H   0  0  0  0  0  0  0  0  0  0  0  0
   -8.7681   -8.3297    8.2472 H   0  0  0  0  0  0  0  0  0  0  0  0
   -8.7608   -5.3543    7.9731 H   0  0  0  0  0  0  0  0  0  0  0  0
   -7.3692   -5.6185    6.9716 H   0  0  0  0  0  0  0  0  0  0  0  0
   -6.2008   -5.1999    9.0086 H   0  0  0  0  0  0  0  0  0  0  0  0
   -5.7551   -7.9922    9.4751 H   0  0  0  0  0  0  0  0  0  0  0  0
   -5.7039   -6.9701   10.8386 H   0  0  0  0  0  0  0  0  0  0  0  0
  1  2  2  0
  2  3  1  0
  3  4  1  0
  4  5  1  0
  5  6  1  0
  6  7  1  0
  7  8  1  0
  8  9  1  0
  9 10  1  0
  2 11  1  0
 11 12  2  0
 12 13  1  0
 13 14  1  0
 14 15  1  0
 15 16  1  0
 16 17  1  0
 17 18  1  0
 13 19  1  0
 19 20  2  0
 10  6  1  0
 20 11  1  0
 18 14  1  0
  3 21  1  0
  4 22  1  0
  4 23  1  0
  5 24  1  0
  5 25  1  0
  6 26  1  0
  7 27  1  0
  7 28  1  0
  8 29  1  0
  8 30  1  0
  9 31  1  0
  9 32  1  0
 10 33  1  0
 12 34  1  0
 14 35  1  0
 15 36  1  0
 15 37  1  0
 16 38  1  0
 16 39  1  0
 17 40  1  0
 18 41  1  0
 18 42  1  0
M  END
>  <Energy>  (712) 
800.37628139230503

>  <compound_id>  (712) 
8449

>  <target_id>  (712) 
1

>  <reference_id>  (712) 
95

>  <inspiration_ids>  (712) 
[95, 30]

>  <energy_score>  (712) 
757.8618208314106

>  <distance_score>  (712) 
8.198471103035283

>  <path>  (712) 
/opt/xchem-fragalysis-2/maxwin/BulkDock/SCRATCH/511015/C8449-P95/C8449-P95.minimised.mol

>  <scratch_subdir>  (712) 
/opt/xchem-fragalysis-2/maxwin/BulkDock/SCRATCH/511015/C8449-P95

>  <fragmenstein_runtime>  (712) 
17.365610122680664

>  <fragmenstein_outcome>  (712) 
too moved

>  <fragmenstein_mode>  (712) 
expansion

>  <fragmenstein_error>  (712) 


$$$$
C8449-P30
     RDKit          3D

 42 44  0  0  0  0  0  0  0  0999 V2000
   -9.1007  -17.0403   13.5924 O   0  0  0  0  0  0  0  0  0  0  0  0
   -9.6300  -17.5450   12.6414 C   0  0  0  0  0  0  0  0  0  0  0  0
   -9.2984  -19.0377   11.8455 N   0  0  0  0  0  0  0  0  0  0  0  0
   -8.0839  -20.1609   12.0670 C   0  0  0  0  0  0  0  0  0  0  0  0
   -8.1192  -21.7466   12.6836 C   0  0  0  0  0  0  0  0  0  0  0  0
   -9.3322  -22.6991   12.5119 C   0  0  0  0  0  0  0  0  0  0  0  0
  -10.2018  -22.8111   13.7171 C   0  0  0  0  0  0  0  0  0  0  0  0
  -10.9958  -24.1059   13.5258 C   0  0  0  0  0  0  0  0  0  0  0  0
  -10.2366  -24.8862   12.4771 C   0  0  0  0  0  0  0  0  0  0  0  0
   -9.0066  -24.1317   12.3698 N   0  0  0  0  0  0  0  0  0  0  0  0
  -11.0720  -16.6552   11.5332 C   0  0  0  0  0  0  0  0  0  0  0  0
  -10.2306  -14.9402   11.2633 C   0  0  0  0  0  0  0  0  0  0  0  0
   -9.3089  -14.5866    9.4822 N   0  0  0  0  0  0  0  0  0  0  0  0
   -9.3359  -12.8843    8.4473 C   0  0  0  0  0  0  0  0  0  0  0  0
   -9.4327  -10.9392    7.8954 C   0  0  0  0  0  0  0  0  0  0  0  0
   -9.5630   -9.3959    8.0285 C   0  0  0  0  0  0  0  0  0  0  0  0
   -8.1767   -9.1377    8.4304 N   0  0  0  0  0  0  0  0  0  0  0  0
   -8.1822  -11.1367    8.1059 C   0  0  0  0  0  0  0  0  0  0  0  0
   -8.5122  -16.5191    9.1802 N   0  0  0  0  0  0  0  0  0  0  0  0
  -10.0362  -17.6714   10.1085 N   0  0  0  0  0  0  0  0  0  0  0  0
   -9.8620  -19.1203   11.0348 H   0  0  0  0  0  0  0  0  0  0  0  0
   -7.9991  -20.3855   11.0019 H   0  0  0  0  0  0  0  0  0  0  0  0
   -7.0937  -19.7010   12.1999 H   0  0  0  0  0  0  0  0  0  0  0  0
   -7.8366  -21.7683   13.7394 H   0  0  0  0  0  0  0  0  0  0  0  0
   -7.2070  -22.2055   12.2807 H   0  0  0  0  0  0  0  0  0  0  0  0
   -9.9487  -22.3859   11.6678 H   0  0  0  0  0  0  0  0  0  0  0  0
   -9.6247  -22.8532   14.6482 H   0  0  0  0  0  0  0  0  0  0  0  0
  -10.8039  -21.9150   13.7017 H   0  0  0  0  0  0  0  0  0  0  0  0
  -11.0376  -24.6756   14.4588 H   0  0  0  0  0  0  0  0  0  0  0  0
  -12.0202  -23.9011   13.1979 H   0  0  0  0  0  0  0  0  0  0  0  0
  -10.0529  -25.9183   12.7890 H   0  0  0  0  0  0  0  0  0  0  0  0
  -10.7750  -24.8981   11.5237 H   0  0  0  0  0  0  0  0  0  0  0  0
   -8.3340  -24.5114   11.7116 H   0  0  0  0  0  0  0  0  0  0  0  0
  -10.5952  -13.9382   11.5536 H   0  0  0  0  0  0  0  0  0  0  0  0
   -9.4010  -13.3877    7.4835 H   0  0  0  0  0  0  0  0  0  0  0  0
  -10.0788  -10.9724    8.7959 H   0  0  0  0  0  0  0  0  0  0  0  0
   -9.5998  -11.0311    6.7725 H   0  0  0  0  0  0  0  0  0  0  0  0
   -9.6716   -8.8960    7.1013 H   0  0  0  0  0  0  0  0  0  0  0  0
  -10.3484   -9.2776    8.7767 H   0  0  0  0  0  0  0  0  0  0  0  0
   -8.0040   -8.7934    9.3830 H   0  0  0  0  0  0  0  0  0  0  0  0
   -7.7887  -11.3356    7.1772 H   0  0  0  0  0  0  0  0  0  0  0  0
   -7.1767  -10.8545    8.2707 H   0  0  0  0  0  0  0  0  0  0  0  0
  1  2  2  0
  2  3  1  0
  3  4  1  0
  4  5  1  0
  5  6  1  0
  6  7  1  0
  7  8  1  0
  8  9  1  0
  9 10  1  0
  2 11  1  0
 11 12  2  0
 12 13  1  0
 13 14  1  0
 14 15  1  0
 15 16  1  0
 16 17  1  0
 17 18  1  0
 13 19  1  0
 19 20  2  0
 10  6  1  0
 20 11  1  0
 18 14  1  0
  3 21  1  0
  4 22  1  0
  4 23  1  0
  5 24  1  0
  5 25  1  0
  6 26  1  0
  7 27  1  0
  7 28  1  0
  8 29  1  0
  8 30  1  0
  9 31  1  0
  9 32  1  0
 10 33  1  0
 12 34  1  0
 14 35  1  0
 15 36  1  0
 15 37  1  0
 16 38  1  0
 16 39  1  0
 17 40  1  0
 18 41  1  0
 18 42  1  0
M  END
>  <Energy>  (713) 
1797.2112870754186

>  <compound_id>  (713) 
8449

>  <target_id>  (713) 
1

>  <reference_id>  (713) 
30

>  <inspiration_ids>  (713) 
[95, 30]

>  <energy_score>  (713) 
1754.6968265145508

>  <distance_score>  (713) 
7.032526639078391

>  <path>  (713) 
/opt/xchem-fragalysis-2/maxwin/BulkDock/SCRATCH/511015/C8449-P30/C8449-P30.minimised.mol

>  <scratch_subdir>  (713) 
/opt/xchem-fragalysis-2/maxwin/BulkDock/SCRATCH/511015/C8449-P30

>  <fragmenstein_runtime>  (713) 
15.719578266143799

>  <fragmenstein_outcome>  (713) 
too moved

>  <fragmenstein_mode>  (713) 
expansion

>  <fragmenstein_error>  (713) 


$$$$
C8453-P95
     RDKit          3D

 50 52  0  0  0  0  0  0  0  0999 V2000
   -6.5003  -18.4716    9.0041 O   0  0  0  0  0  0  0  0  0  0  0  0
   -6.4906  -18.0335   10.1609 C   0  0  0  0  0  0  0  0  0  0  0  0
   -6.4470  -16.1091   10.5321 N   0  0  0  0  0  0  0  0  0  0  0  0
   -6.5534  -14.4351    9.2739 C   0  0  0  0  0  0  0  0  0  0  0  0
   -8.1226  -12.8913    9.5079 C   0  0  0  0  0  0  0  0  0  0  0  0
   -7.8406  -10.9444    8.3026 C   0  0  0  0  0  0  0  0  0  0  0  0
   -7.9471   -8.8849    8.5976 C   0  0  0  0  0  0  0  0  0  0  0  0
   -7.0071   -8.0675    9.4984 C   0  0  0  0  0  0  0  0  0  0  0  0
   -5.7358   -8.6736    9.1580 C   0  0  0  0  0  0  0  0  0  0  0  0
   -6.1759   -9.9078    7.9537 N   0  0  0  0  0  0  0  0  0  0  0  0
   -6.6596  -19.0305   11.6272 N   0  0  0  0  0  0  0  0  0  0  0  0
   -5.3749  -19.4554   12.1057 C   0  0  0  0  0  0  0  0  0  0  0  0
   -4.7237  -20.6855   11.7684 C   0  0  0  0  0  0  0  0  0  0  0  0
   -5.7641  -21.5523   11.2780 C   0  0  0  0  0  0  0  0  0  0  0  0
   -7.0173  -20.8524   11.8224 C   0  0  0  0  0  0  0  0  0  0  0  0
   -8.3927  -22.0716   12.3768 C   0  0  0  0  0  0  0  0  0  0  0  0
   -8.4822  -23.7941   12.1837 C   0  0  0  0  0  0  0  0  0  0  0  0
   -9.5830  -24.5651   11.4419 C   0  0  0  0  0  0  0  0  0  0  0  0
  -10.8229  -23.8944   11.4960 O   0  0  0  0  0  0  0  0  0  0  0  0
  -10.8476  -22.9056   12.5309 C   0  0  0  0  0  0  0  0  0  0  0  0
   -9.8616  -21.7789   12.1649 C   0  0  0  0  0  0  0  0  0  0  0  0
   -6.3457  -15.9750   11.4586 H   0  0  0  0  0  0  0  0  0  0  0  0
   -6.8772  -14.9527    8.3803 H   0  0  0  0  0  0  0  0  0  0  0  0
   -5.5444  -14.1042    9.0329 H   0  0  0  0  0  0  0  0  0  0  0  0
   -8.3939  -12.7274   10.6256 H   0  0  0  0  0  0  0  0  0  0  0  0
   -9.1252  -13.3388    9.1641 H   0  0  0  0  0  0  0  0  0  0  0  0
   -8.5951  -11.1387    7.5090 H   0  0  0  0  0  0  0  0  0  0  0  0
   -7.4712   -8.3331    7.8136 H   0  0  0  0  0  0  0  0  0  0  0  0
   -8.9628   -8.5435    8.4662 H   0  0  0  0  0  0  0  0  0  0  0  0
   -6.9083   -7.0087    9.3677 H   0  0  0  0  0  0  0  0  0  0  0  0
   -7.2273   -8.2160   10.5170 H   0  0  0  0  0  0  0  0  0  0  0  0
   -4.8347   -8.1696    9.4404 H   0  0  0  0  0  0  0  0  0  0  0  0
   -5.4331   -9.2508   10.0595 H   0  0  0  0  0  0  0  0  0  0  0  0
   -6.2656   -9.4650    7.0431 H   0  0  0  0  0  0  0  0  0  0  0  0
   -4.4321  -18.9847   11.9925 H   0  0  0  0  0  0  0  0  0  0  0  0
   -5.3920  -18.9217   13.0450 H   0  0  0  0  0  0  0  0  0  0  0  0
   -3.9599  -20.9422   12.4911 H   0  0  0  0  0  0  0  0  0  0  0  0
   -4.1493  -20.3450   10.9452 H   0  0  0  0  0  0  0  0  0  0  0  0
   -5.7106  -22.6259   11.4625 H   0  0  0  0  0  0  0  0  0  0  0  0
   -5.5729  -21.4426   10.2045 H   0  0  0  0  0  0  0  0  0  0  0  0
   -6.8597  -20.8683   12.8704 H   0  0  0  0  0  0  0  0  0  0  0  0
   -8.2303  -22.0592   13.4655 H   0  0  0  0  0  0  0  0  0  0  0  0
   -7.5042  -24.2170   11.9145 H   0  0  0  0  0  0  0  0  0  0  0  0
   -8.8736  -24.1251   13.1563 H   0  0  0  0  0  0  0  0  0  0  0  0
   -9.3066  -24.8091   10.4147 H   0  0  0  0  0  0  0  0  0  0  0  0
   -9.7204  -25.5466   11.9165 H   0  0  0  0  0  0  0  0  0  0  0  0
  -10.6663  -23.3467   13.5166 H   0  0  0  0  0  0  0  0  0  0  0  0
  -11.8717  -22.5508   12.5683 H   0  0  0  0  0  0  0  0  0  0  0  0
   -9.9137  -21.7065   11.0917 H   0  0  0  0  0  0  0  0  0  0  0  0
  -10.1940  -20.8875   12.6828 H   0  0  0  0  0  0  0  0  0  0  0  0
  1  2  2  0
  2  3  1  0
  3  4  1  0
  4  5  1  0
  5  6  1  0
  6  7  1  0
  7  8  1  0
  8  9  1  0
  9 10  1  0
  2 11  1  0
 11 12  1  0
 12 13  1  0
 13 14  1  0
 14 15  1  0
 15 16  1  0
 16 17  1  0
 17 18  1  0
 18 19  1  0
 19 20  1  0
 20 21  1  0
 10  6  1  0
 15 11  1  0
 21 16  1  0
  3 22  1  0
  4 23  1  0
  4 24  1  0
  5 25  1  0
  5 26  1  0
  6 27  1  0
  7 28  1  0
  7 29  1  0
  8 30  1  0
  8 31  1  0
  9 32  1  0
  9 33  1  0
 10 34  1  0
 12 35  1  0
 12 36  1  0
 13 37  1  0
 13 38  1  0
 14 39  1  0
 14 40  1  0
 15 41  1  0
 16 42  1  0
 17 43  1  0
 17 44  1  0
 18 45  1  0
 18 46  1  0
 20 47  1  0
 20 48  1  0
 21 49  1  0
 21 50  1  0
M  END
>  <Energy>  (714) 
1066.9619157465381

>  <compound_id>  (714) 
8453

>  <target_id>  (714) 
1

>  <reference_id>  (714) 
95

>  <inspiration_ids>  (714) 
[95, 30]

>  <energy_score>  (714) 
1084.8160250401195

>  <distance_score>  (714) 
8.42524643138092

>  <path>  (714) 
/opt/xchem-fragalysis-2/maxwin/BulkDock/SCRATCH/511015/C8453-P95/C8453-P95.minimised.mol

>  <scratch_subdir>  (714) 
/opt/xchem-fragalysis-2/maxwin/BulkDock/SCRATCH/511015/C8453-P95

>  <fragmenstein_runtime>  (714) 
18.215237855911255

>  <fragmenstein_outcome>  (714) 
too moved

>  <fragmenstein_mode>  (714) 
expansion

>  <fragmenstein_error>  (714) 


$$$$
C8453-P30
     RDKit          3D

 50 52  0  0  0  0  0  0  0  0999 V2000
   -6.4799  -18.8689    8.9725 O   0  0  0  0  0  0  0  0  0  0  0  0
   -6.5594  -18.4407   10.0625 C   0  0  0  0  0  0  0  0  0  0  0  0
   -6.5748  -16.5221   10.3299 N   0  0  0  0  0  0  0  0  0  0  0  0
   -6.6463  -14.9472    9.0030 C   0  0  0  0  0  0  0  0  0  0  0  0
   -8.3535  -13.6498    9.4848 C   0  0  0  0  0  0  0  0  0  0  0  0
   -8.9724  -12.2549    8.0447 C   0  0  0  0  0  0  0  0  0  0  0  0
   -7.8411  -10.9236    8.1852 C   0  0  0  0  0  0  0  0  0  0  0  0
   -8.1090   -8.9750    8.5035 C   0  0  0  0  0  0  0  0  0  0  0  0
   -9.5120   -9.4011    7.9724 C   0  0  0  0  0  0  0  0  0  0  0  0
   -9.3953  -10.7919    7.5358 N   0  0  0  0  0  0  0  0  0  0  0  0
   -6.8768  -19.2669   11.6170 N   0  0  0  0  0  0  0  0  0  0  0  0
   -5.6490  -19.6712   12.2231 C   0  0  0  0  0  0  0  0  0  0  0  0
   -5.2031  -21.0172   11.8305 C   0  0  0  0  0  0  0  0  0  0  0  0
   -6.2798  -21.9088   12.1445 C   0  0  0  0  0  0  0  0  0  0  0  0
   -7.3044  -20.9351   11.9077 C   0  0  0  0  0  0  0  0  0  0  0  0
   -8.9021  -21.9169   12.4198 C   0  0  0  0  0  0  0  0  0  0  0  0
   -9.9602  -21.7597   13.5238 C   0  0  0  0  0  0  0  0  0  0  0  0
   -9.4147  -22.4835   14.7358 C   0  0  0  0  0  0  0  0  0  0  0  0
   -9.7890  -23.8491   14.7697 O   0  0  0  0  0  0  0  0  0  0  0  0
   -9.8513  -24.4055   13.4842 C   0  0  0  0  0  0  0  0  0  0  0  0
   -9.0065  -23.6611   12.4386 C   0  0  0  0  0  0  0  0  0  0  0  0
   -6.5519  -16.3513   11.1978 H   0  0  0  0  0  0  0  0  0  0  0  0
   -5.6846  -14.4450    9.0030 H   0  0  0  0  0  0  0  0  0  0  0  0
   -7.0964  -15.3217    8.1380 H   0  0  0  0  0  0  0  0  0  0  0  0
   -8.4029  -13.0672   10.4361 H   0  0  0  0  0  0  0  0  0  0  0  0
   -9.3325  -14.0775    9.3279 H   0  0  0  0  0  0  0  0  0  0  0  0
   -9.2845  -12.9560    7.2330 H   0  0  0  0  0  0  0  0  0  0  0  0
   -6.7890  -10.5644    8.0762 H   0  0  0  0  0  0  0  0  0  0  0  0
   -7.6318  -11.2349    7.1995 H   0  0  0  0  0  0  0  0  0  0  0  0
   -7.9498   -8.6764    9.5466 H   0  0  0  0  0  0  0  0  0  0  0  0
   -7.2581   -8.4791    8.0255 H   0  0  0  0  0  0  0  0  0  0  0  0
  -10.3279   -9.3930    8.6937 H   0  0  0  0  0  0  0  0  0  0  0  0
   -9.6683   -8.8275    7.0903 H   0  0  0  0  0  0  0  0  0  0  0  0
   -9.5796  -10.8795    6.5216 H   0  0  0  0  0  0  0  0  0  0  0  0
   -5.7694  -19.0583   13.0998 H   0  0  0  0  0  0  0  0  0  0  0  0
   -4.6501  -19.2708   12.1483 H   0  0  0  0  0  0  0  0  0  0  0  0
   -4.2520  -21.2225   12.2887 H   0  0  0  0  0  0  0  0  0  0  0  0
   -5.1275  -21.0414   10.7493 H   0  0  0  0  0  0  0  0  0  0  0  0
   -6.2043  -22.8705   11.6322 H   0  0  0  0  0  0  0  0  0  0  0  0
   -6.5813  -22.1320   13.1441 H   0  0  0  0  0  0  0  0  0  0  0  0
   -7.7508  -20.7513   10.9374 H   0  0  0  0  0  0  0  0  0  0  0  0
   -9.4866  -21.7158   11.5378 H   0  0  0  0  0  0  0  0  0  0  0  0
  -10.8753  -22.2591   13.1811 H   0  0  0  0  0  0  0  0  0  0  0  0
  -10.3560  -20.7626   13.7149 H   0  0  0  0  0  0  0  0  0  0  0  0
   -9.7167  -22.0162   15.6578 H   0  0  0  0  0  0  0  0  0  0  0  0
   -8.3305  -22.4445   14.7390 H   0  0  0  0  0  0  0  0  0  0  0  0
  -10.9058  -24.4279   13.1798 H   0  0  0  0  0  0  0  0  0  0  0  0
   -9.5447  -25.4560   13.5387 H   0  0  0  0  0  0  0  0  0  0  0  0
   -9.5874  -23.9727   11.5519 H   0  0  0  0  0  0  0  0  0  0  0  0
   -8.0134  -24.1085   12.3361 H   0  0  0  0  0  0  0  0  0  0  0  0
  1  2  2  0
  2  3  1  0
  3  4  1  0
  4  5  1  0
  5  6  1  0
  6  7  1  0
  7  8  1  0
  8  9  1  0
  9 10  1  0
  2 11  1  0
 11 12  1  0
 12 13  1  0
 13 14  1  0
 14 15  1  0
 15 16  1  0
 16 17  1  0
 17 18  1  0
 18 19  1  0
 19 20  1  0
 20 21  1  0
 10  6  1  0
 15 11  1  0
 21 16  1  0
  3 22  1  0
  4 23  1  0
  4 24  1  0
  5 25  1  0
  5 26  1  0
  6 27  1  0
  7 28  1  0
  7 29  1  0
  8 30  1  0
  8 31  1  0
  9 32  1  0
  9 33  1  0
 10 34  1  0
 12 35  1  0
 12 36  1  0
 13 37  1  0
 13 38  1  0
 14 39  1  0
 14 40  1  0
 15 41  1  0
 16 42  1  0
 17 43  1  0
 17 44  1  0
 18 45  1  0
 18 46  1  0
 20 47  1  0
 20 48  1  0
 21 49  1  0
 21 50  1  0
M  END
>  <Energy>  (715) 
894.23054771706109

>  <compound_id>  (715) 
8453

>  <target_id>  (715) 
1

>  <reference_id>  (715) 
30

>  <inspiration_ids>  (715) 
[95, 30]

>  <energy_score>  (715) 
912.0846570106387

>  <distance_score>  (715) 
8.376907413784878

>  <path>  (715) 
/opt/xchem-fragalysis-2/maxwin/BulkDock/SCRATCH/511015/C8453-P30/C8453-P30.minimised.mol

>  <scratch_subdir>  (715) 
/opt/xchem-fragalysis-2/maxwin/BulkDock/SCRATCH/511015/C8453-P30

>  <fragmenstein_runtime>  (715) 
16.29619336128235

>  <fragmenstein_outcome>  (715) 
too moved

>  <fragmenstein_mode>  (715) 
expansion

>  <fragmenstein_error>  (715) 


$$$$
C8457-P95
     RDKit          3D

 44 46  0  0  0  0  0  0  0  0999 V2000
   -8.9912  -17.1859    0.4548 C   0  0  0  0  0  0  0  0  0  0  0  0
   -9.5263  -16.9304    1.8302 N   0  0  0  0  0  0  0  0  0  0  0  0
  -10.0065  -15.6384    1.1677 C   0  0  0  0  0  0  0  0  0  0  0  0
   -9.0927  -14.3921    0.8569 C   0  0  0  0  0  0  0  0  0  0  0  0
   -7.9298  -14.1006    1.7933 C   0  0  0  0  0  0  0  0  0  0  0  0
   -7.6459  -12.6394    1.4954 C   0  0  0  0  0  0  0  0  0  0  0  0
   -9.0432  -12.0564    1.4087 C   0  0  0  0  0  0  0  0  0  0  0  0
   -9.8331  -13.1052    0.7610 N   0  0  0  0  0  0  0  0  0  0  0  0
  -10.2686  -18.0835    2.2960 C   0  0  0  0  0  0  0  0  0  0  0  0
  -11.4367  -18.3515    2.1968 O   0  0  0  0  0  0  0  0  0  0  0  0
   -9.3402  -19.1789    3.0153 C   0  0  0  0  0  0  0  0  0  0  0  0
   -8.1572  -18.9754    3.0852 O   0  0  0  0  0  0  0  0  0  0  0  0
  -10.1284  -20.2980    3.4777 N   0  0  0  0  0  0  0  0  0  0  0  0
  -10.6107  -20.0515    4.8743 C   0  0  0  0  0  0  0  0  0  0  0  0
  -11.5021  -21.1587    5.4179 C   0  0  0  0  0  0  0  0  0  0  0  0
  -10.9067  -22.3384    4.7201 C   0  0  0  0  0  0  0  0  0  0  0  0
  -10.7217  -23.4855    5.5707 N   0  0  0  0  0  0  0  0  0  0  0  0
   -9.6067  -24.2182    5.8365 C   0  0  0  0  0  0  0  0  0  0  0  0
   -9.9189  -25.2514    6.5889 N   0  0  0  0  0  0  0  0  0  0  0  0
  -11.2581  -25.0899    6.7823 C   0  0  0  0  0  0  0  0  0  0  0  0
  -11.8106  -24.0624    6.1317 N   0  0  0  0  0  0  0  0  0  0  0  0
   -9.7064  -21.6213    4.0974 C   0  0  0  0  0  0  0  0  0  0  0  0
   -8.1497  -16.5466    0.1667 H   0  0  0  0  0  0  0  0  0  0  0  0
   -9.7513  -17.3304   -0.3283 H   0  0  0  0  0  0  0  0  0  0  0  0
   -8.5207  -18.1799    0.5072 H   0  0  0  0  0  0  0  0  0  0  0  0
  -10.6800  -15.2841    1.9605 H   0  0  0  0  0  0  0  0  0  0  0  0
  -10.7559  -15.8043    0.3720 H   0  0  0  0  0  0  0  0  0  0  0  0
   -8.6758  -14.5418   -0.1481 H   0  0  0  0  0  0  0  0  0  0  0  0
   -7.0602  -14.7313    1.5854 H   0  0  0  0  0  0  0  0  0  0  0  0
   -8.2033  -14.2299    2.8411 H   0  0  0  0  0  0  0  0  0  0  0  0
   -7.0031  -12.1875    2.2505 H   0  0  0  0  0  0  0  0  0  0  0  0
   -7.1345  -12.5453    0.5287 H   0  0  0  0  0  0  0  0  0  0  0  0
   -9.0723  -11.1231    0.8399 H   0  0  0  0  0  0  0  0  0  0  0  0
   -9.4545  -11.8762    2.4071 H   0  0  0  0  0  0  0  0  0  0  0  0
  -10.7659  -13.1547    1.1696 H   0  0  0  0  0  0  0  0  0  0  0  0
   -9.7725  -19.8038    5.5473 H   0  0  0  0  0  0  0  0  0  0  0  0
  -11.1989  -19.1271    4.8216 H   0  0  0  0  0  0  0  0  0  0  0  0
  -12.5458  -21.0143    5.1179 H   0  0  0  0  0  0  0  0  0  0  0  0
  -11.4519  -21.2034    6.5100 H   0  0  0  0  0  0  0  0  0  0  0  0
  -11.5758  -22.6665    3.9126 H   0  0  0  0  0  0  0  0  0  0  0  0
   -8.6173  -23.9724    5.4794 H   0  0  0  0  0  0  0  0  0  0  0  0
  -11.8537  -25.7557    7.3921 H   0  0  0  0  0  0  0  0  0  0  0  0
   -8.8248  -21.5035    4.7480 H   0  0  0  0  0  0  0  0  0  0  0  0
   -9.3313  -22.2183    3.2549 H   0  0  0  0  0  0  0  0  0  0  0  0
  1  2  1  0
  2  3  1  0
  3  4  1  0
  4  5  1  0
  5  6  1  0
  6  7  1  0
  7  8  1  0
  2  9  1  0
  9 10  2  0
  9 11  1  0
 11 12  2  0
 11 13  1  0
 13 14  1  0
 14 15  1  0
 15 16  1  0
 16 17  1  0
 17 18  1  0
 18 19  2  0
 19 20  1  0
 20 21  2  0
 16 22  1  0
  8  4  1  0
 22 13  1  0
 21 17  1  0
  1 23  1  0
  1 24  1  0
  1 25  1  0
  3 26  1  0
  3 27  1  0
  4 28  1  0
  5 29  1  0
  5 30  1  0
  6 31  1  0
  6 32  1  0
  7 33  1  0
  7 34  1  0
  8 35  1  0
 14 36  1  0
 14 37  1  0
 15 38  1  0
 15 39  1  0
 16 40  1  0
 18 41  1  0
 20 42  1  0
 22 43  1  0
 22 44  1  0
M  END
>  <Energy>  (716) 
213.44063437578353

>  <compound_id>  (716) 
8457

>  <target_id>  (716) 
1

>  <reference_id>  (716) 
95

>  <inspiration_ids>  (716) 
[95, 30]

>  <energy_score>  (716) 
87.85873624306896

>  <distance_score>  (716) 
11.160178919913367

>  <path>  (716) 
/opt/xchem-fragalysis-2/maxwin/BulkDock/SCRATCH/511015/C8457-P95/C8457-P95.minimised.mol

>  <scratch_subdir>  (716) 
/opt/xchem-fragalysis-2/maxwin/BulkDock/SCRATCH/511015/C8457-P95

>  <fragmenstein_runtime>  (716) 
14.388557434082031

>  <fragmenstein_outcome>  (716) 
too moved

>  <fragmenstein_mode>  (716) 
expansion

>  <fragmenstein_error>  (716) 


$$$$
C8457-P30
     RDKit          3D

 44 46  0  0  0  0  0  0  0  0999 V2000
  -12.5557  -16.3565    5.5359 C   0  0  0  0  0  0  0  0  0  0  0  0
  -11.4591  -16.1333    6.5515 N   0  0  0  0  0  0  0  0  0  0  0  0
  -12.0412  -14.5828    6.4855 C   0  0  0  0  0  0  0  0  0  0  0  0
  -10.3173  -13.4058    7.1049 C   0  0  0  0  0  0  0  0  0  0  0  0
   -9.7377  -12.6123    5.9750 C   0  0  0  0  0  0  0  0  0  0  0  0
   -9.5077  -11.1818    6.4533 C   0  0  0  0  0  0  0  0  0  0  0  0
   -8.9807  -11.5024    7.7586 C   0  0  0  0  0  0  0  0  0  0  0  0
   -9.6455  -12.9881    8.3922 N   0  0  0  0  0  0  0  0  0  0  0  0
  -11.5455  -17.2672    7.7486 C   0  0  0  0  0  0  0  0  0  0  0  0
  -12.1776  -17.1906    8.8313 O   0  0  0  0  0  0  0  0  0  0  0  0
  -10.4096  -19.0215    7.7003 C   0  0  0  0  0  0  0  0  0  0  0  0
  -10.0422  -19.6064    8.6786 O   0  0  0  0  0  0  0  0  0  0  0  0
  -10.2044  -19.5388    6.0541 N   0  0  0  0  0  0  0  0  0  0  0  0
  -11.4627  -20.4128    5.5775 C   0  0  0  0  0  0  0  0  0  0  0  0
  -11.2779  -21.7735    4.9162 C   0  0  0  0  0  0  0  0  0  0  0  0
  -10.1003  -22.0782    5.7444 C   0  0  0  0  0  0  0  0  0  0  0  0
   -9.3628  -23.2638    5.4643 N   0  0  0  0  0  0  0  0  0  0  0  0
   -9.5027  -24.4672    6.0932 C   0  0  0  0  0  0  0  0  0  0  0  0
   -8.5098  -25.2567    5.7624 N   0  0  0  0  0  0  0  0  0  0  0  0
   -7.7711  -24.4690    4.9283 C   0  0  0  0  0  0  0  0  0  0  0  0
   -8.2736  -23.2549    4.6772 N   0  0  0  0  0  0  0  0  0  0  0  0
   -9.4637  -20.7055    5.4915 C   0  0  0  0  0  0  0  0  0  0  0  0
  -13.5813  -16.1040    5.8352 H   0  0  0  0  0  0  0  0  0  0  0  0
  -12.5369  -17.4206    5.2756 H   0  0  0  0  0  0  0  0  0  0  0  0
  -12.3208  -15.9101    4.5608 H   0  0  0  0  0  0  0  0  0  0  0  0
  -12.9554  -14.5436    7.0374 H   0  0  0  0  0  0  0  0  0  0  0  0
  -12.4219  -14.2057    5.4854 H   0  0  0  0  0  0  0  0  0  0  0  0
   -9.5721  -14.1929    7.0949 H   0  0  0  0  0  0  0  0  0  0  0  0
   -8.9069  -13.4246    5.7650 H   0  0  0  0  0  0  0  0  0  0  0  0
   -9.7975  -12.5516    4.8267 H   0  0  0  0  0  0  0  0  0  0  0  0
   -9.6329  -10.5769    5.5579 H   0  0  0  0  0  0  0  0  0  0  0  0
   -9.6425  -10.2423    6.9358 H   0  0  0  0  0  0  0  0  0  0  0  0
   -9.5963  -10.8067    8.3271 H   0  0  0  0  0  0  0  0  0  0  0  0
   -7.9927  -11.2479    7.9634 H   0  0  0  0  0  0  0  0  0  0  0  0
   -8.8452  -13.5209    8.6787 H   0  0  0  0  0  0  0  0  0  0  0  0
  -12.0229  -20.7058    6.4626 H   0  0  0  0  0  0  0  0  0  0  0  0
  -12.0769  -19.7584    4.9487 H   0  0  0  0  0  0  0  0  0  0  0  0
  -11.0743  -21.7081    3.8409 H   0  0  0  0  0  0  0  0  0  0  0  0
  -12.1283  -22.4447    5.0704 H   0  0  0  0  0  0  0  0  0  0  0  0
  -10.4450  -22.1694    6.7755 H   0  0  0  0  0  0  0  0  0  0  0  0
  -10.2999  -24.6893    6.7881 H   0  0  0  0  0  0  0  0  0  0  0  0
   -6.8449  -24.7969    4.4744 H   0  0  0  0  0  0  0  0  0  0  0  0
   -9.3591  -20.5036    4.4075 H   0  0  0  0  0  0  0  0  0  0  0  0
   -8.4196  -20.5836    5.7907 H   0  0  0  0  0  0  0  0  0  0  0  0
  1  2  1  0
  2  3  1  0
  3  4  1  0
  4  5  1  0
  5  6  1  0
  6  7  1  0
  7  8  1  0
  2  9  1  0
  9 10  2  0
  9 11  1  0
 11 12  2  0
 11 13  1  0
 13 14  1  0
 14 15  1  0
 15 16  1  0
 16 17  1  0
 17 18  1  0
 18 19  2  0
 19 20  1  0
 20 21  2  0
 16 22  1  0
  8  4  1  0
 22 13  1  0
 21 17  1  0
  1 23  1  0
  1 24  1  0
  1 25  1  0
  3 26  1  0
  3 27  1  0
  4 28  1  0
  5 29  1  0
  5 30  1  0
  6 31  1  0
  6 32  1  0
  7 33  1  0
  7 34  1  0
  8 35  1  0
 14 36  1  0
 14 37  1  0
 15 38  1  0
 15 39  1  0
 16 40  1  0
 18 41  1  0
 20 42  1  0
 22 43  1  0
 22 44  1  0
M  END
>  <Energy>  (717) 
629.65202707267224

>  <compound_id>  (717) 
8457

>  <target_id>  (717) 
1

>  <reference_id>  (717) 
30

>  <inspiration_ids>  (717) 
[95, 30]

>  <energy_score>  (717) 
504.070128939952

>  <distance_score>  (717) 
9.726618952092437

>  <path>  (717) 
/opt/xchem-fragalysis-2/maxwin/BulkDock/SCRATCH/511015/C8457-P30/C8457-P30.minimised.mol

>  <scratch_subdir>  (717) 
/opt/xchem-fragalysis-2/maxwin/BulkDock/SCRATCH/511015/C8457-P30

>  <fragmenstein_runtime>  (717) 
13.891551494598389

>  <fragmenstein_outcome>  (717) 
too moved

>  <fragmenstein_mode>  (717) 
expansion

>  <fragmenstein_error>  (717) 


$$$$
C8468-P95
     RDKit          3D

 46 48  0  0  0  0  0  0  0  0999 V2000
   -9.1983  -19.8042   11.5951 O   0  0  0  0  0  0  0  0  0  0  0  0
   -9.9875  -19.7167   12.5170 C   0  0  0  0  0  0  0  0  0  0  0  0
  -10.5699  -18.2455   13.2562 N   0  0  0  0  0  0  0  0  0  0  0  0
  -10.1181  -16.5774   12.9791 C   0  0  0  0  0  0  0  0  0  0  0  0
  -10.5110  -14.7468   12.7654 C   0  0  0  0  0  0  0  0  0  0  0  0
   -9.7953  -13.2241   11.9787 C   0  0  0  0  0  0  0  0  0  0  0  0
  -10.2743  -12.7347   10.4409 C   0  0  0  0  0  0  0  0  0  0  0  0
   -9.8158  -12.7801    8.8902 C   0  0  0  0  0  0  0  0  0  0  0  0
   -9.5525  -10.8846    8.1894 C   0  0  0  0  0  0  0  0  0  0  0  0
  -10.5318  -10.0717    9.7340 C   0  0  0  0  0  0  0  0  0  0  0  0
  -10.7790  -11.5046   10.0365 N   0  0  0  0  0  0  0  0  0  0  0  0
  -10.3712  -21.3155   13.1235 C   0  0  0  0  0  0  0  0  0  0  0  0
   -9.9188  -21.6881   14.4211 C   0  0  0  0  0  0  0  0  0  0  0  0
   -9.6000  -22.9434   14.6702 N   0  0  0  0  0  0  0  0  0  0  0  0
   -9.8498  -23.4953   13.5300 N   0  0  0  0  0  0  0  0  0  0  0  0
  -10.4463  -22.6741   12.6134 C   0  0  0  0  0  0  0  0  0  0  0  0
  -11.0945  -23.4987   11.5303 C   0  0  0  0  0  0  0  0  0  0  0  0
  -10.4700  -24.8832   11.2192 C   0  0  0  0  0  0  0  0  0  0  0  0
  -11.2382  -25.9169   12.0418 C   0  0  0  0  0  0  0  0  0  0  0  0
  -12.3219  -25.2017   12.7115 N   0  0  0  0  0  0  0  0  0  0  0  0
  -12.5045  -23.9534   11.9491 C   0  0  0  0  0  0  0  0  0  0  0  0
  -11.1472  -18.4761   14.0458 H   0  0  0  0  0  0  0  0  0  0  0  0
   -9.1310  -16.6707   13.3964 H   0  0  0  0  0  0  0  0  0  0  0  0
  -10.9495  -16.3886   13.5989 H   0  0  0  0  0  0  0  0  0  0  0  0
  -11.5974  -14.6418   12.7022 H   0  0  0  0  0  0  0  0  0  0  0  0
  -10.2454  -14.4408   13.7802 H   0  0  0  0  0  0  0  0  0  0  0  0
  -10.1106  -12.4001   12.6071 H   0  0  0  0  0  0  0  0  0  0  0  0
   -8.7140  -13.1392   12.1415 H   0  0  0  0  0  0  0  0  0  0  0  0
  -11.1345  -13.2965   10.6531 H   0  0  0  0  0  0  0  0  0  0  0  0
   -9.8486  -13.3819    7.9985 H   0  0  0  0  0  0  0  0  0  0  0  0
   -8.9254  -13.2659    9.2702 H   0  0  0  0  0  0  0  0  0  0  0  0
   -8.4723  -10.9739    8.0084 H   0  0  0  0  0  0  0  0  0  0  0  0
   -9.6791  -10.5123    7.1919 H   0  0  0  0  0  0  0  0  0  0  0  0
  -11.4762   -9.5371    9.5547 H   0  0  0  0  0  0  0  0  0  0  0  0
  -10.1174   -9.4994   10.5766 H   0  0  0  0  0  0  0  0  0  0  0  0
  -11.7563  -11.4332    9.8304 H   0  0  0  0  0  0  0  0  0  0  0  0
   -9.8365  -21.0205   15.2436 H   0  0  0  0  0  0  0  0  0  0  0  0
   -9.6726  -24.4893   13.4704 H   0  0  0  0  0  0  0  0  0  0  0  0
  -11.0597  -22.9150   10.6346 H   0  0  0  0  0  0  0  0  0  0  0  0
  -10.6529  -25.1424   10.1690 H   0  0  0  0  0  0  0  0  0  0  0  0
   -9.3879  -24.9331   11.3763 H   0  0  0  0  0  0  0  0  0  0  0  0
  -11.6489  -26.6974   11.3917 H   0  0  0  0  0  0  0  0  0  0  0  0
  -10.5921  -26.4119   12.7742 H   0  0  0  0  0  0  0  0  0  0  0  0
  -12.0456  -24.9556   13.6616 H   0  0  0  0  0  0  0  0  0  0  0  0
  -13.1143  -24.1717   11.0638 H   0  0  0  0  0  0  0  0  0  0  0  0
  -13.0460  -23.2307   12.5623 H   0  0  0  0  0  0  0  0  0  0  0  0
  1  2  2  0
  2  3  1  0
  3  4  1  0
  4  5  1  0
  5  6  1  0
  6  7  1  0
  7  8  1  0
  8  9  1  0
  9 10  1  0
 10 11  1  0
  2 12  1  0
 12 13  1  0
 13 14  2  0
 14 15  1  0
 15 16  1  0
 16 17  1  0
 17 18  1  0
 18 19  1  0
 19 20  1  0
 20 21  1  0
 11  7  1  0
 16 12  2  0
 21 17  1  0
  3 22  1  0
  4 23  1  0
  4 24  1  0
  5 25  1  0
  5 26  1  0
  6 27  1  0
  6 28  1  0
  7 29  1  0
  8 30  1  0
  8 31  1  0
  9 32  1  0
  9 33  1  0
 10 34  1  0
 10 35  1  0
 11 36  1  0
 13 37  1  0
 15 38  1  0
 17 39  1  0
 18 40  1  0
 18 41  1  0
 19 42  1  0
 19 43  1  0
 20 44  1  0
 21 45  1  0
 21 46  1  0
M  END
>  <Energy>  (718) 
560.33903060949001

>  <compound_id>  (718) 
8468

>  <target_id>  (718) 
1

>  <reference_id>  (718) 
95

>  <inspiration_ids>  (718) 
[95, 30]

>  <energy_score>  (718) 
499.080420368035

>  <distance_score>  (718) 
7.595348985095551

>  <path>  (718) 
/opt/xchem-fragalysis-2/maxwin/BulkDock/SCRATCH/511015/C8468-P95/C8468-P95.minimised.mol

>  <scratch_subdir>  (718) 
/opt/xchem-fragalysis-2/maxwin/BulkDock/SCRATCH/511015/C8468-P95

>  <fragmenstein_runtime>  (718) 
18.952026844024658

>  <fragmenstein_outcome>  (718) 
too moved

>  <fragmenstein_mode>  (718) 
expansion

>  <fragmenstein_error>  (718) 


$$$$
C8468-P30
     RDKit          3D

 46 48  0  0  0  0  0  0  0  0999 V2000
   -8.4249  -20.1524   11.7766 O   0  0  0  0  0  0  0  0  0  0  0  0
   -7.2760  -20.2437   12.0921 C   0  0  0  0  0  0  0  0  0  0  0  0
   -6.3413  -19.2411   12.5619 N   0  0  0  0  0  0  0  0  0  0  0  0
   -6.5441  -17.7728   12.9103 C   0  0  0  0  0  0  0  0  0  0  0  0
   -7.9461  -16.8363   13.8394 C   0  0  0  0  0  0  0  0  0  0  0  0
   -7.9920  -14.9923   14.4840 C   0  0  0  0  0  0  0  0  0  0  0  0
   -8.8815  -13.5583   13.7262 C   0  0  0  0  0  0  0  0  0  0  0  0
   -8.3476  -12.6655   12.6509 C   0  0  0  0  0  0  0  0  0  0  0  0
   -9.1982  -11.4026   12.8126 C   0  0  0  0  0  0  0  0  0  0  0  0
   -9.0957  -11.1244   14.2146 C   0  0  0  0  0  0  0  0  0  0  0  0
   -9.2487  -12.4681   14.6911 N   0  0  0  0  0  0  0  0  0  0  0  0
   -6.7521  -21.5773   12.1135 C   0  0  0  0  0  0  0  0  0  0  0  0
   -5.5514  -21.9734   11.5401 C   0  0  0  0  0  0  0  0  0  0  0  0
   -5.5140  -23.2759   11.2763 N   0  0  0  0  0  0  0  0  0  0  0  0
   -6.5391  -23.7579   11.9878 N   0  0  0  0  0  0  0  0  0  0  0  0
   -7.4247  -22.7764   12.4799 C   0  0  0  0  0  0  0  0  0  0  0  0
   -8.8668  -23.1940   13.0398 C   0  0  0  0  0  0  0  0  0  0  0  0
  -10.1334  -22.5621   12.5501 C   0  0  0  0  0  0  0  0  0  0  0  0
  -11.2019  -23.6149   12.8158 C   0  0  0  0  0  0  0  0  0  0  0  0
  -10.5912  -24.8362   12.3206 N   0  0  0  0  0  0  0  0  0  0  0  0
   -9.2219  -24.7234   12.8185 C   0  0  0  0  0  0  0  0  0  0  0  0
   -5.4234  -19.6602   12.6520 H   0  0  0  0  0  0  0  0  0  0  0  0
   -5.7896  -17.4007   13.5793 H   0  0  0  0  0  0  0  0  0  0  0  0
   -6.4346  -17.5553   11.8635 H   0  0  0  0  0  0  0  0  0  0  0  0
   -8.2284  -17.3183   14.7423 H   0  0  0  0  0  0  0  0  0  0  0  0
   -8.8547  -17.0223   13.2301 H   0  0  0  0  0  0  0  0  0  0  0  0
   -7.4187  -14.9218   15.3987 H   0  0  0  0  0  0  0  0  0  0  0  0
   -8.9737  -14.9620   14.8416 H   0  0  0  0  0  0  0  0  0  0  0  0
   -9.8185  -13.9995   13.3472 H   0  0  0  0  0  0  0  0  0  0  0  0
   -7.2741  -12.5858   12.8154 H   0  0  0  0  0  0  0  0  0  0  0  0
   -8.5129  -12.9791   11.6407 H   0  0  0  0  0  0  0  0  0  0  0  0
   -8.9744  -10.3887   12.4766 H   0  0  0  0  0  0  0  0  0  0  0  0
  -10.1568  -11.6654   12.3874 H   0  0  0  0  0  0  0  0  0  0  0  0
   -8.1577  -10.6155   14.3897 H   0  0  0  0  0  0  0  0  0  0  0  0
   -9.8049  -10.3721   14.5578 H   0  0  0  0  0  0  0  0  0  0  0  0
  -10.1931  -12.6009   15.0134 H   0  0  0  0  0  0  0  0  0  0  0  0
   -4.8102  -21.2819   11.2232 H   0  0  0  0  0  0  0  0  0  0  0  0
   -6.6312  -24.7658   12.0107 H   0  0  0  0  0  0  0  0  0  0  0  0
   -8.8783  -22.9487   14.1154 H   0  0  0  0  0  0  0  0  0  0  0  0
  -10.3440  -21.6474   13.1037 H   0  0  0  0  0  0  0  0  0  0  0  0
  -10.0869  -22.3654   11.4859 H   0  0  0  0  0  0  0  0  0  0  0  0
  -12.1614  -23.4395   12.3334 H   0  0  0  0  0  0  0  0  0  0  0  0
  -11.3900  -23.7345   13.8821 H   0  0  0  0  0  0  0  0  0  0  0  0
  -10.5849  -24.8161   11.3016 H   0  0  0  0  0  0  0  0  0  0  0  0
   -9.2012  -25.2624   13.7709 H   0  0  0  0  0  0  0  0  0  0  0  0
   -8.5662  -25.2492   12.1228 H   0  0  0  0  0  0  0  0  0  0  0  0
  1  2  2  0
  2  3  1  0
  3  4  1  0
  4  5  1  0
  5  6  1  0
  6  7  1  0
  7  8  1  0
  8  9  1  0
  9 10  1  0
 10 11  1  0
  2 12  1  0
 12 13  1  0
 13 14  2  0
 14 15  1  0
 15 16  1  0
 16 17  1  0
 17 18  1  0
 18 19  1  0
 19 20  1  0
 20 21  1  0
 11  7  1  0
 16 12  2  0
 21 17  1  0
  3 22  1  0
  4 23  1  0
  4 24  1  0
  5 25  1  0
  5 26  1  0
  6 27  1  0
  6 28  1  0
  7 29  1  0
  8 30  1  0
  8 31  1  0
  9 32  1  0
  9 33  1  0
 10 34  1  0
 10 35  1  0
 11 36  1  0
 13 37  1  0
 15 38  1  0
 17 39  1  0
 18 40  1  0
 18 41  1  0
 19 42  1  0
 19 43  1  0
 20 44  1  0
 21 45  1  0
 21 46  1  0
M  END
>  <Energy>  (719) 
236.96728370785959

>  <compound_id>  (719) 
8468

>  <target_id>  (719) 
1

>  <reference_id>  (719) 
30

>  <inspiration_ids>  (719) 
[95, 30]

>  <energy_score>  (719) 
175.70867346640728

>  <distance_score>  (719) 
9.580951469111042

>  <path>  (719) 
/opt/xchem-fragalysis-2/maxwin/BulkDock/SCRATCH/511015/C8468-P30/C8468-P30.minimised.mol

>  <scratch_subdir>  (719) 
/opt/xchem-fragalysis-2/maxwin/BulkDock/SCRATCH/511015/C8468-P30

>  <fragmenstein_runtime>  (719) 
24.917613744735718

>  <fragmenstein_outcome>  (719) 
too moved

>  <fragmenstein_mode>  (719) 
expansion

>  <fragmenstein_error>  (719) 


$$$$
C8471-P95
     RDKit          3D

 46 48  0  0  0  0  0  0  0  0999 V2000
  -12.3317  -17.7003   15.1508 O   0  0  0  0  0  0  0  0  0  0  0  0
  -11.8256  -18.1803   14.1295 C   0  0  0  0  0  0  0  0  0  0  0  0
  -10.5220  -16.7863   13.2274 C   0  0  0  0  0  0  0  0  0  0  0  0
  -10.5934  -14.8520   12.3505 C   0  0  0  0  0  0  0  0  0  0  0  0
  -10.1684  -13.2370   11.0500 C   0  0  0  0  0  0  0  0  0  0  0  0
  -10.4036  -11.8575    9.7416 C   0  0  0  0  0  0  0  0  0  0  0  0
   -9.2722  -11.5129    8.0070 C   0  0  0  0  0  0  0  0  0  0  0  0
   -9.5281  -13.0091    7.9651 C   0  0  0  0  0  0  0  0  0  0  0  0
   -9.5943  -13.5377    9.3661 N   0  0  0  0  0  0  0  0  0  0  0  0
  -12.5049  -19.7951   13.5692 N   0  0  0  0  0  0  0  0  0  0  0  0
  -13.9602  -20.7956   14.1369 C   0  0  0  0  0  0  0  0  0  0  0  0
  -14.3065  -22.4247   13.5403 C   0  0  0  0  0  0  0  0  0  0  0  0
  -15.6623  -22.8881   13.5041 C   0  0  0  0  0  0  0  0  0  0  0  0
  -15.7851  -24.1283   13.0549 N   0  0  0  0  0  0  0  0  0  0  0  0
  -14.5383  -24.4733   12.7517 N   0  0  0  0  0  0  0  0  0  0  0  0
  -13.5764  -23.5091   12.9872 C   0  0  0  0  0  0  0  0  0  0  0  0
  -12.1944  -23.8587   12.4653 C   0  0  0  0  0  0  0  0  0  0  0  0
  -11.7645  -25.3100   12.7523 C   0  0  0  0  0  0  0  0  0  0  0  0
  -10.2508  -25.3176   12.5462 C   0  0  0  0  0  0  0  0  0  0  0  0
   -9.8985  -23.9365   12.2114 N   0  0  0  0  0  0  0  0  0  0  0  0
  -10.9345  -23.1200   12.8680 C   0  0  0  0  0  0  0  0  0  0  0  0
   -9.4743  -16.9354   13.4366 H   0  0  0  0  0  0  0  0  0  0  0  0
  -11.0435  -16.0851   13.8680 H   0  0  0  0  0  0  0  0  0  0  0  0
  -10.0926  -14.3500   13.1989 H   0  0  0  0  0  0  0  0  0  0  0  0
  -11.6476  -14.6142   12.5910 H   0  0  0  0  0  0  0  0  0  0  0  0
  -11.2299  -13.1166   11.1275 H   0  0  0  0  0  0  0  0  0  0  0  0
  -11.3981  -11.6019    9.6993 H   0  0  0  0  0  0  0  0  0  0  0  0
  -10.4465  -10.8548   10.1615 H   0  0  0  0  0  0  0  0  0  0  0  0
   -8.2558  -11.1945    7.9687 H   0  0  0  0  0  0  0  0  0  0  0  0
   -9.6341  -10.5578    7.6079 H   0  0  0  0  0  0  0  0  0  0  0  0
  -10.2916  -13.2395    7.2987 H   0  0  0  0  0  0  0  0  0  0  0  0
   -9.0836  -13.5414    7.0980 H   0  0  0  0  0  0  0  0  0  0  0  0
  -10.5612  -13.5938    9.1626 H   0  0  0  0  0  0  0  0  0  0  0  0
  -11.9616  -20.1033   12.8165 H   0  0  0  0  0  0  0  0  0  0  0  0
  -14.0051  -20.5531   15.1575 H   0  0  0  0  0  0  0  0  0  0  0  0
  -14.9029  -20.4012   13.8201 H   0  0  0  0  0  0  0  0  0  0  0  0
  -16.5568  -22.3499   13.7938 H   0  0  0  0  0  0  0  0  0  0  0  0
  -14.4020  -25.3868   12.3335 H   0  0  0  0  0  0  0  0  0  0  0  0
  -12.2857  -23.7896   11.3705 H   0  0  0  0  0  0  0  0  0  0  0  0
  -12.0047  -25.5993   13.7831 H   0  0  0  0  0  0  0  0  0  0  0  0
  -12.2547  -26.0195   12.0765 H   0  0  0  0  0  0  0  0  0  0  0  0
   -9.9545  -25.9931   11.7383 H   0  0  0  0  0  0  0  0  0  0  0  0
   -9.7466  -25.6391   13.4642 H   0  0  0  0  0  0  0  0  0  0  0  0
   -8.9943  -23.6932   12.6075 H   0  0  0  0  0  0  0  0  0  0  0  0
  -10.7394  -23.1452   13.9389 H   0  0  0  0  0  0  0  0  0  0  0  0
  -10.8748  -22.0911   12.5293 H   0  0  0  0  0  0  0  0  0  0  0  0
  1  2  2  0
  2  3  1  0
  3  4  1  0
  4  5  1  0
  5  6  1  0
  6  7  1  0
  7  8  1  0
  8  9  1  0
  2 10  1  0
 10 11  1  0
 11 12  1  0
 12 13  1  0
 13 14  2  0
 14 15  1  0
 15 16  1  0
 16 17  1  0
 17 18  1  0
 18 19  1  0
 19 20  1  0
 20 21  1  0
  9  5  1  0
 16 12  2  0
 21 17  1  0
  3 22  1  0
  3 23  1  0
  4 24  1  0
  4 25  1  0
  5 26  1  0
  6 27  1  0
  6 28  1  0
  7 29  1  0
  7 30  1  0
  8 31  1  0
  8 32  1  0
  9 33  1  0
 10 34  1  0
 11 35  1  0
 11 36  1  0
 13 37  1  0
 15 38  1  0
 17 39  1  0
 18 40  1  0
 18 41  1  0
 19 42  1  0
 19 43  1  0
 20 44  1  0
 21 45  1  0
 21 46  1  0
M  END
>  <Energy>  (720) 
902.44993931884369

>  <compound_id>  (720) 
8471

>  <target_id>  (720) 
1

>  <reference_id>  (720) 
95

>  <inspiration_ids>  (720) 
[95, 30]

>  <energy_score>  (720) 
877.5829388472393

>  <distance_score>  (720) 
8.71759244947716

>  <path>  (720) 
/opt/xchem-fragalysis-2/maxwin/BulkDock/SCRATCH/511015/C8471-P95/C8471-P95.minimised.mol

>  <scratch_subdir>  (720) 
/opt/xchem-fragalysis-2/maxwin/BulkDock/SCRATCH/511015/C8471-P95

>  <fragmenstein_runtime>  (720) 
19.50490689277649

>  <fragmenstein_outcome>  (720) 
too moved

>  <fragmenstein_mode>  (720) 
expansion

>  <fragmenstein_error>  (720) 


$$$$
C8471-P30
     RDKit          3D

 46 48  0  0  0  0  0  0  0  0999 V2000
   -8.9351  -17.1425   13.4611 O   0  0  0  0  0  0  0  0  0  0  0  0
   -7.7541  -17.0050   13.7465 C   0  0  0  0  0  0  0  0  0  0  0  0
   -7.3664  -15.6514   14.7500 C   0  0  0  0  0  0  0  0  0  0  0  0
   -8.5674  -14.9547   15.4454 C   0  0  0  0  0  0  0  0  0  0  0  0
   -9.4183  -13.7709   14.7871 C   0  0  0  0  0  0  0  0  0  0  0  0
   -9.8348  -12.7583   15.8920 C   0  0  0  0  0  0  0  0  0  0  0  0
   -9.4734  -11.3485   15.4264 C   0  0  0  0  0  0  0  0  0  0  0  0
   -9.0268  -11.4864   13.9807 C   0  0  0  0  0  0  0  0  0  0  0  0
   -9.0180  -12.9101   13.6400 N   0  0  0  0  0  0  0  0  0  0  0  0
   -6.4405  -17.8598   13.2606 N   0  0  0  0  0  0  0  0  0  0  0  0
   -6.3142  -19.3768   12.2334 C   0  0  0  0  0  0  0  0  0  0  0  0
   -7.1420  -20.8361   12.3620 C   0  0  0  0  0  0  0  0  0  0  0  0
   -8.4723  -20.7663   11.8853 C   0  0  0  0  0  0  0  0  0  0  0  0
   -9.2589  -21.7866   12.2514 N   0  0  0  0  0  0  0  0  0  0  0  0
   -8.4176  -22.5228   12.9455 N   0  0  0  0  0  0  0  0  0  0  0  0
   -7.1150  -22.2928   12.4763 C   0  0  0  0  0  0  0  0  0  0  0  0
   -6.3401  -23.6248   11.9448 C   0  0  0  0  0  0  0  0  0  0  0  0
   -7.1534  -24.9006   11.5097 C   0  0  0  0  0  0  0  0  0  0  0  0
   -6.4335  -25.4514   10.2881 C   0  0  0  0  0  0  0  0  0  0  0  0
   -5.8146  -24.2919    9.6681 N   0  0  0  0  0  0  0  0  0  0  0  0
   -5.3725  -23.4537   10.7967 C   0  0  0  0  0  0  0  0  0  0  0  0
   -6.6273  -15.8259   15.5325 H   0  0  0  0  0  0  0  0  0  0  0  0
   -6.8179  -14.9384   14.1682 H   0  0  0  0  0  0  0  0  0  0  0  0
   -9.2793  -15.7360   15.7453 H   0  0  0  0  0  0  0  0  0  0  0  0
   -8.1588  -14.5821   16.3943 H   0  0  0  0  0  0  0  0  0  0  0  0
  -10.3084  -14.3140   14.4477 H   0  0  0  0  0  0  0  0  0  0  0  0
   -9.3416  -12.9467   16.8519 H   0  0  0  0  0  0  0  0  0  0  0  0
  -10.9073  -12.8380   16.0979 H   0  0  0  0  0  0  0  0  0  0  0  0
   -8.6643  -10.9564   16.0524 H   0  0  0  0  0  0  0  0  0  0  0  0
  -10.2985  -10.6462   15.5768 H   0  0  0  0  0  0  0  0  0  0  0  0
   -8.0681  -11.0075   13.8938 H   0  0  0  0  0  0  0  0  0  0  0  0
   -9.5672  -10.9066   13.2322 H   0  0  0  0  0  0  0  0  0  0  0  0
   -8.1676  -13.1985   13.1752 H   0  0  0  0  0  0  0  0  0  0  0  0
   -5.6340  -17.5347   13.7454 H   0  0  0  0  0  0  0  0  0  0  0  0
   -6.6014  -19.0760   11.2496 H   0  0  0  0  0  0  0  0  0  0  0  0
   -5.2652  -19.6746   12.3117 H   0  0  0  0  0  0  0  0  0  0  0  0
   -8.8726  -19.8948   11.4202 H   0  0  0  0  0  0  0  0  0  0  0  0
   -8.8375  -23.3531   13.3414 H   0  0  0  0  0  0  0  0  0  0  0  0
   -5.7495  -24.0623   12.7249 H   0  0  0  0  0  0  0  0  0  0  0  0
   -7.1193  -25.6919   12.2547 H   0  0  0  0  0  0  0  0  0  0  0  0
   -8.2206  -24.7759   11.3251 H   0  0  0  0  0  0  0  0  0  0  0  0
   -7.1186  -25.9606    9.6035 H   0  0  0  0  0  0  0  0  0  0  0  0
   -5.6599  -26.1695   10.5846 H   0  0  0  0  0  0  0  0  0  0  0  0
   -6.5558  -23.7817    9.1746 H   0  0  0  0  0  0  0  0  0  0  0  0
   -5.2443  -22.4233   10.4749 H   0  0  0  0  0  0  0  0  0  0  0  0
   -4.4233  -23.8491   11.1542 H   0  0  0  0  0  0  0  0  0  0  0  0
  1  2  2  0
  2  3  1  0
  3  4  1  0
  4  5  1  0
  5  6  1  0
  6  7  1  0
  7  8  1  0
  8  9  1  0
  2 10  1  0
 10 11  1  0
 11 12  1  0
 12 13  1  0
 13 14  2  0
 14 15  1  0
 15 16  1  0
 16 17  1  0
 17 18  1  0
 18 19  1  0
 19 20  1  0
 20 21  1  0
  9  5  1  0
 16 12  2  0
 21 17  1  0
  3 22  1  0
  3 23  1  0
  4 24  1  0
  4 25  1  0
  5 26  1  0
  6 27  1  0
  6 28  1  0
  7 29  1  0
  7 30  1  0
  8 31  1  0
  8 32  1  0
  9 33  1  0
 10 34  1  0
 11 35  1  0
 11 36  1  0
 13 37  1  0
 15 38  1  0
 17 39  1  0
 18 40  1  0
 18 41  1  0
 19 42  1  0
 19 43  1  0
 20 44  1  0
 21 45  1  0
 21 46  1  0
M  END
>  <Energy>  (721) 
182.71296959033205

>  <compound_id>  (721) 
8471

>  <target_id>  (721) 
1

>  <reference_id>  (721) 
30

>  <inspiration_ids>  (721) 
[95, 30]

>  <energy_score>  (721) 
157.84596911873524

>  <distance_score>  (721) 
10.250804649056427

>  <path>  (721) 
/opt/xchem-fragalysis-2/maxwin/BulkDock/SCRATCH/511015/C8471-P30/C8471-P30.minimised.mol

>  <scratch_subdir>  (721) 
/opt/xchem-fragalysis-2/maxwin/BulkDock/SCRATCH/511015/C8471-P30

>  <fragmenstein_runtime>  (721) 
34.11894249916077

>  <fragmenstein_outcome>  (721) 
too moved

>  <fragmenstein_mode>  (721) 
expansion

>  <fragmenstein_error>  (721) 


$$$$
C14617-P95
     RDKit          3D

 46 47  0  0  0  0  0  0  0  0999 V2000
  -18.0933  -15.2700    6.2366 O   0  0  0  0  0  0  0  0  0  0  0  0
  -18.7940  -14.4154    6.6945 C   0  0  0  0  0  0  0  0  0  0  0  0
  -18.9560  -13.0802    5.9449 C   0  0  0  0  0  0  0  0  0  0  0  0
  -17.8433  -12.8422    4.9083 C   0  0  0  0  0  0  0  0  0  0  0  0
  -17.6716  -11.3610    4.5188 C   0  0  0  0  0  0  0  0  0  0  0  0
  -18.4132  -10.5187    4.9560 O   0  0  0  0  0  0  0  0  0  0  0  0
  -16.6062  -11.2587    3.5663 N   0  0  0  0  0  0  0  0  0  0  0  0
  -15.2887  -10.9781    4.2733 C   0  0  0  0  0  0  0  0  0  0  0  0
  -15.1300   -9.5255    4.6912 C   0  0  0  0  0  0  0  0  0  0  0  0
  -15.7605   -8.8645    3.5235 C   0  0  0  0  0  0  0  0  0  0  0  0
  -16.1457  -10.0979    2.7277 C   0  0  0  0  0  0  0  0  0  0  0  0
  -19.5647  -14.3837    7.9093 N   0  0  0  0  0  0  0  0  0  0  0  0
  -19.6590  -15.3382    9.0078 C   0  0  0  0  0  0  0  0  0  0  0  0
  -19.9174  -16.7867    8.6017 C   0  0  0  0  0  0  0  0  0  0  0  0
  -20.1080  -17.6910    9.8326 C   0  0  0  0  0  0  0  0  0  0  0  0
  -20.4913  -17.2344   10.8780 O   0  0  0  0  0  0  0  0  0  0  0  0
  -19.8522  -19.0499    9.4466 N   0  0  0  0  0  0  0  0  0  0  0  0
  -18.4091  -19.4130    9.7239 C   0  0  0  0  0  0  0  0  0  0  0  0
  -18.1071  -19.7491   11.1710 C   0  0  0  0  0  0  0  0  0  0  0  0
  -19.3726  -20.4394   11.5162 C   0  0  0  0  0  0  0  0  0  0  0  0
  -20.0847  -20.3382   10.1814 C   0  0  0  0  0  0  0  0  0  0  0  0
  -18.9634  -12.2677    6.6778 H   0  0  0  0  0  0  0  0  0  0  0  0
  -19.9322  -13.0844    5.4461 H   0  0  0  0  0  0  0  0  0  0  0  0
  -16.8864  -13.2017    5.3031 H   0  0  0  0  0  0  0  0  0  0  0  0
  -18.0627  -13.4164    4.0003 H   0  0  0  0  0  0  0  0  0  0  0  0
  -15.2455  -11.6032    5.1735 H   0  0  0  0  0  0  0  0  0  0  0  0
  -14.4565  -11.3461    3.6525 H   0  0  0  0  0  0  0  0  0  0  0  0
  -14.0942   -9.2373    4.8443 H   0  0  0  0  0  0  0  0  0  0  0  0
  -15.6728   -9.2938    5.6071 H   0  0  0  0  0  0  0  0  0  0  0  0
  -15.0836   -8.2104    2.9667 H   0  0  0  0  0  0  0  0  0  0  0  0
  -16.6405   -8.2862    3.8242 H   0  0  0  0  0  0  0  0  0  0  0  0
  -15.3673  -10.4210    2.0171 H   0  0  0  0  0  0  0  0  0  0  0  0
  -17.0086   -9.8374    2.1008 H   0  0  0  0  0  0  0  0  0  0  0  0
  -19.9730  -13.4621    8.0180 H   0  0  0  0  0  0  0  0  0  0  0  0
  -20.4595  -14.9718    9.6599 H   0  0  0  0  0  0  0  0  0  0  0  0
  -18.7230  -15.2665    9.5693 H   0  0  0  0  0  0  0  0  0  0  0  0
  -20.8361  -16.8466    8.0058 H   0  0  0  0  0  0  0  0  0  0  0  0
  -19.1017  -17.1598    7.9764 H   0  0  0  0  0  0  0  0  0  0  0  0
  -18.0897  -20.2075    9.0284 H   0  0  0  0  0  0  0  0  0  0  0  0
  -17.7979  -18.5501    9.4526 H   0  0  0  0  0  0  0  0  0  0  0  0
  -17.2193  -20.3790   11.2716 H   0  0  0  0  0  0  0  0  0  0  0  0
  -17.9699  -18.8498   11.7802 H   0  0  0  0  0  0  0  0  0  0  0  0
  -19.9137  -19.9011   12.3015 H   0  0  0  0  0  0  0  0  0  0  0  0
  -19.2379  -21.4768   11.8345 H   0  0  0  0  0  0  0  0  0  0  0  0
  -19.8877  -21.1964    9.5180 H   0  0  0  0  0  0  0  0  0  0  0  0
  -21.1657  -20.3700   10.3715 H   0  0  0  0  0  0  0  0  0  0  0  0
  1  2  2  0
  2  3  1  0
  3  4  1  0
  4  5  1  0
  5  6  2  0
  5  7  1  0
  7  8  1  0
  8  9  1  0
  9 10  1  0
 10 11  1  0
  2 12  1  0
 12 13  1  0
 13 14  1  0
 14 15  1  0
 15 16  2  0
 15 17  1  0
 17 18  1  0
 18 19  1  0
 19 20  1  0
 20 21  1  0
 11  7  1  0
 21 17  1  0
  3 22  1  0
  3 23  1  0
  4 24  1  0
  4 25  1  0
  8 26  1  0
  8 27  1  0
  9 28  1  0
  9 29  1  0
 10 30  1  0
 10 31  1  0
 11 32  1  0
 11 33  1  0
 12 34  1  0
 13 35  1  0
 13 36  1  0
 14 37  1  0
 14 38  1  0
 18 39  1  0
 18 40  1  0
 19 41  1  0
 19 42  1  0
 20 43  1  0
 20 44  1  0
 21 45  1  0
 21 46  1  0
M  END
>  <Energy>  (722) 
74.358339843111636

>  <compound_id>  (722) 
14617

>  <target_id>  (722) 
1

>  <reference_id>  (722) 
95

>  <inspiration_ids>  (722) 
[95, 30]

>  <energy_score>  (722) 
96.08553189389659

>  <distance_score>  (722) 
12.916875862682431

>  <path>  (722) 
/opt/xchem-fragalysis-2/maxwin/BulkDock/SCRATCH/511015/C14617-P95/C14617-P95.minimised.mol

>  <scratch_subdir>  (722) 
/opt/xchem-fragalysis-2/maxwin/BulkDock/SCRATCH/511015/C14617-P95

>  <fragmenstein_runtime>  (722) 
28.117757558822632

>  <fragmenstein_outcome>  (722) 
too moved

>  <fragmenstein_mode>  (722) 
expansion

>  <fragmenstein_error>  (722) 


$$$$
C14617-P30
     RDKit          3D

 46 47  0  0  0  0  0  0  0  0999 V2000
  -15.2300   -7.0835    2.2490 O   0  0  0  0  0  0  0  0  0  0  0  0
  -16.1855   -7.7223    2.5940 C   0  0  0  0  0  0  0  0  0  0  0  0
  -17.4248   -6.9910    3.1217 C   0  0  0  0  0  0  0  0  0  0  0  0
  -17.8102   -5.8418    2.1839 C   0  0  0  0  0  0  0  0  0  0  0  0
  -17.5410   -4.4635    2.7836 C   0  0  0  0  0  0  0  0  0  0  0  0
  -17.5290   -4.3011    3.9743 O   0  0  0  0  0  0  0  0  0  0  0  0
  -17.4273   -3.5187    1.7155 N   0  0  0  0  0  0  0  0  0  0  0  0
  -15.9759   -3.3467    1.3169 C   0  0  0  0  0  0  0  0  0  0  0  0
  -15.1815   -2.4265    2.2253 C   0  0  0  0  0  0  0  0  0  0  0  0
  -16.2592   -1.4871    2.6189 C   0  0  0  0  0  0  0  0  0  0  0  0
  -17.3685   -2.0210    1.7357 C   0  0  0  0  0  0  0  0  0  0  0  0
  -16.4219   -9.1433    2.5804 N   0  0  0  0  0  0  0  0  0  0  0  0
  -15.6260  -10.2309    2.0622 C   0  0  0  0  0  0  0  0  0  0  0  0
  -14.8754  -11.0266    3.1187 C   0  0  0  0  0  0  0  0  0  0  0  0
  -15.7408  -12.0292    3.8803 C   0  0  0  0  0  0  0  0  0  0  0  0
  -16.8920  -11.7817    4.1355 O   0  0  0  0  0  0  0  0  0  0  0  0
  -14.9195  -13.1464    4.2594 N   0  0  0  0  0  0  0  0  0  0  0  0
  -15.0128  -14.2427    3.2230 C   0  0  0  0  0  0  0  0  0  0  0  0
  -14.0764  -15.3984    3.5327 C   0  0  0  0  0  0  0  0  0  0  0  0
  -14.1925  -15.4194    5.0114 C   0  0  0  0  0  0  0  0  0  0  0  0
  -15.1970  -14.2987    5.1793 C   0  0  0  0  0  0  0  0  0  0  0  0
  -17.1961   -6.6683    4.1426 H   0  0  0  0  0  0  0  0  0  0  0  0
  -18.2815   -7.6698    3.1895 H   0  0  0  0  0  0  0  0  0  0  0  0
  -18.8935   -5.8799    2.0091 H   0  0  0  0  0  0  0  0  0  0  0  0
  -17.3281   -5.9389    1.2046 H   0  0  0  0  0  0  0  0  0  0  0  0
  -15.9163   -3.0471    0.2566 H   0  0  0  0  0  0  0  0  0  0  0  0
  -15.5056   -4.3392    1.3405 H   0  0  0  0  0  0  0  0  0  0  0  0
  -14.3647   -1.9309    1.6942 H   0  0  0  0  0  0  0  0  0  0  0  0
  -14.7650   -2.9584    3.0773 H   0  0  0  0  0  0  0  0  0  0  0  0
  -16.5129   -1.5846    3.6790 H   0  0  0  0  0  0  0  0  0  0  0  0
  -16.0284   -0.4389    2.4104 H   0  0  0  0  0  0  0  0  0  0  0  0
  -17.3669   -1.6087    0.7134 H   0  0  0  0  0  0  0  0  0  0  0  0
  -18.3257   -1.7019    2.1689 H   0  0  0  0  0  0  0  0  0  0  0  0
  -17.3764   -9.3226    2.8699 H   0  0  0  0  0  0  0  0  0  0  0  0
  -14.9015   -9.7892    1.3689 H   0  0  0  0  0  0  0  0  0  0  0  0
  -16.2970  -10.8771    1.4868 H   0  0  0  0  0  0  0  0  0  0  0  0
  -14.0778  -11.5738    2.6062 H   0  0  0  0  0  0  0  0  0  0  0  0
  -14.4228  -10.3568    3.8575 H   0  0  0  0  0  0  0  0  0  0  0  0
  -14.7125  -13.8024    2.2624 H   0  0  0  0  0  0  0  0  0  0  0  0
  -16.0589  -14.5537    3.0526 H   0  0  0  0  0  0  0  0  0  0  0  0
  -13.0520  -15.1800    3.2180 H   0  0  0  0  0  0  0  0  0  0  0  0
  -14.3982  -16.3256    3.0503 H   0  0  0  0  0  0  0  0  0  0  0  0
  -13.2385  -15.1880    5.4944 H   0  0  0  0  0  0  0  0  0  0  0  0
  -14.5521  -16.3824    5.3672 H   0  0  0  0  0  0  0  0  0  0  0  0
  -16.2514  -14.6192    5.1247 H   0  0  0  0  0  0  0  0  0  0  0  0
  -15.1056  -13.8835    6.1907 H   0  0  0  0  0  0  0  0  0  0  0  0
  1  2  2  0
  2  3  1  0
  3  4  1  0
  4  5  1  0
  5  6  2  0
  5  7  1  0
  7  8  1  0
  8  9  1  0
  9 10  1  0
 10 11  1  0
  2 12  1  0
 12 13  1  0
 13 14  1  0
 14 15  1  0
 15 16  2  0
 15 17  1  0
 17 18  1  0
 18 19  1  0
 19 20  1  0
 20 21  1  0
 11  7  1  0
 21 17  1  0
  3 22  1  0
  3 23  1  0
  4 24  1  0
  4 25  1  0
  8 26  1  0
  8 27  1  0
  9 28  1  0
  9 29  1  0
 10 30  1  0
 10 31  1  0
 11 32  1  0
 11 33  1  0
 12 34  1  0
 13 35  1  0
 13 36  1  0
 14 37  1  0
 14 38  1  0
 18 39  1  0
 18 40  1  0
 19 41  1  0
 19 42  1  0
 20 43  1  0
 20 44  1  0
 21 45  1  0
 21 46  1  0
M  END
>  <Energy>  (723) 
75.436972610747205

>  <compound_id>  (723) 
14617

>  <target_id>  (723) 
1

>  <reference_id>  (723) 
30

>  <inspiration_ids>  (723) 
[95, 30]

>  <energy_score>  (723) 
97.16416466152336

>  <distance_score>  (723) 
13.54679091761787

>  <path>  (723) 
/opt/xchem-fragalysis-2/maxwin/BulkDock/SCRATCH/511015/C14617-P30/C14617-P30.minimised.mol

>  <scratch_subdir>  (723) 
/opt/xchem-fragalysis-2/maxwin/BulkDock/SCRATCH/511015/C14617-P30

>  <fragmenstein_runtime>  (723) 
18.614534378051758

>  <fragmenstein_outcome>  (723) 
too moved

>  <fragmenstein_mode>  (723) 
expansion

>  <fragmenstein_error>  (723) 


$$$$
C14621-P95
     RDKit          3D

 47 48  0  0  0  0  0  0  0  0999 V2000
   -9.5760  -26.1270   15.2481 C   0  0  0  0  0  0  0  0  0  0  0  0
   -9.7436  -24.6714   14.7329 C   0  0  0  0  0  0  0  0  0  0  0  0
   -9.2020  -22.9549   15.1130 C   0  0  0  0  0  0  0  0  0  0  0  0
   -9.8912  -22.4573   13.6070 C   0  0  0  0  0  0  0  0  0  0  0  0
  -10.7458  -23.3750   12.8177 N   0  0  0  0  0  0  0  0  0  0  0  0
  -12.1708  -23.6220   12.8480 C   0  0  0  0  0  0  0  0  0  0  0  0
  -12.4615  -24.6071   11.7154 C   0  0  0  0  0  0  0  0  0  0  0  0
  -11.1007  -25.0786   11.2693 C   0  0  0  0  0  0  0  0  0  0  0  0
  -10.2004  -23.9156   11.6171 C   0  0  0  0  0  0  0  0  0  0  0  0
   -9.5090  -21.4496   16.0865 N   0  0  0  0  0  0  0  0  0  0  0  0
   -8.5985  -20.7162   17.4695 C   0  0  0  0  0  0  0  0  0  0  0  0
   -7.6303  -21.1377   18.0857 O   0  0  0  0  0  0  0  0  0  0  0  0
   -8.9649  -19.1941   17.9935 C   0  0  0  0  0  0  0  0  0  0  0  0
   -8.8556  -18.0036   18.3018 C   0  0  0  0  0  0  0  0  0  0  0  0
   -8.5516  -16.4673   18.4933 C   0  0  0  0  0  0  0  0  0  0  0  0
   -7.7976  -15.8561   17.2955 C   0  0  0  0  0  0  0  0  0  0  0  0
   -9.7563  -15.5952   18.9325 C   0  0  0  0  0  0  0  0  0  0  0  0
   -9.1390  -14.3024   19.4592 C   0  0  0  0  0  0  0  0  0  0  0  0
   -7.7498  -14.7274   19.9000 C   0  0  0  0  0  0  0  0  0  0  0  0
   -7.6578  -16.1861   19.6442 N   0  0  0  0  0  0  0  0  0  0  0  0
  -10.2221  -26.3760   16.0947 H   0  0  0  0  0  0  0  0  0  0  0  0
   -9.9343  -26.7958   14.4513 H   0  0  0  0  0  0  0  0  0  0  0  0
   -8.5595  -26.4565   15.4378 H   0  0  0  0  0  0  0  0  0  0  0  0
   -9.3154  -24.8296   13.7441 H   0  0  0  0  0  0  0  0  0  0  0  0
  -10.8274  -24.6400   14.6730 H   0  0  0  0  0  0  0  0  0  0  0  0
  -10.0352  -23.1629   15.7158 H   0  0  0  0  0  0  0  0  0  0  0  0
   -8.9984  -22.2532   13.0020 H   0  0  0  0  0  0  0  0  0  0  0  0
  -10.3907  -21.4945   13.6973 H   0  0  0  0  0  0  0  0  0  0  0  0
  -12.7677  -22.7390   12.6776 H   0  0  0  0  0  0  0  0  0  0  0  0
  -12.5248  -24.0908   13.7626 H   0  0  0  0  0  0  0  0  0  0  0  0
  -12.9740  -24.1036   10.8886 H   0  0  0  0  0  0  0  0  0  0  0  0
  -13.0922  -25.4408   12.0405 H   0  0  0  0  0  0  0  0  0  0  0  0
  -10.8109  -25.9683   11.8421 H   0  0  0  0  0  0  0  0  0  0  0  0
  -11.0760  -25.3377   10.2074 H   0  0  0  0  0  0  0  0  0  0  0  0
  -10.2906  -23.0826   10.9373 H   0  0  0  0  0  0  0  0  0  0  0  0
   -9.1717  -24.2678   11.7074 H   0  0  0  0  0  0  0  0  0  0  0  0
  -10.1849  -20.8297   15.7551 H   0  0  0  0  0  0  0  0  0  0  0  0
   -6.7170  -15.7794   17.4701 H   0  0  0  0  0  0  0  0  0  0  0  0
   -8.1412  -14.8482   17.0389 H   0  0  0  0  0  0  0  0  0  0  0  0
   -7.9047  -16.4570   16.4092 H   0  0  0  0  0  0  0  0  0  0  0  0
  -10.3030  -16.0982   19.7429 H   0  0  0  0  0  0  0  0  0  0  0  0
  -10.5004  -15.3343   18.1818 H   0  0  0  0  0  0  0  0  0  0  0  0
   -9.0841  -13.5384   18.6763 H   0  0  0  0  0  0  0  0  0  0  0  0
   -9.7290  -13.8986   20.2882 H   0  0  0  0  0  0  0  0  0  0  0  0
   -7.5851  -14.5241   20.9632 H   0  0  0  0  0  0  0  0  0  0  0  0
   -6.9750  -14.1890   19.3431 H   0  0  0  0  0  0  0  0  0  0  0  0
   -8.0274  -16.6853   20.4535 H   0  0  0  0  0  0  0  0  0  0  0  0
  1  2  1  0
  2  3  1  0
  3  4  1  0
  4  5  1  0
  5  6  1  0
  6  7  1  0
  7  8  1  0
  8  9  1  0
  3 10  1  0
 10 11  1  0
 11 12  2  0
 11 13  1  0
 13 14  3  0
 14 15  1  0
 15 16  1  0
 15 17  1  0
 17 18  1  0
 18 19  1  0
 19 20  1  0
  9  5  1  0
 20 15  1  0
  1 21  1  0
  1 22  1  0
  1 23  1  0
  2 24  1  0
  2 25  1  0
  3 26  1  0
  4 27  1  0
  4 28  1  0
  6 29  1  0
  6 30  1  0
  7 31  1  0
  7 32  1  0
  8 33  1  0
  8 34  1  0
  9 35  1  0
  9 36  1  0
 10 37  1  0
 16 38  1  0
 16 39  1  0
 16 40  1  0
 17 41  1  0
 17 42  1  0
 18 43  1  0
 18 44  1  0
 19 45  1  0
 19 46  1  0
 20 47  1  0
M  END
>  <Energy>  (724) 
280.56296003173685

>  <compound_id>  (724) 
14621

>  <target_id>  (724) 
1

>  <reference_id>  (724) 
95

>  <inspiration_ids>  (724) 
[95, 30]

>  <energy_score>  (724) 
223.47311558068992

>  <distance_score>  (724) 
12.432329387215233

>  <path>  (724) 
/opt/xchem-fragalysis-2/maxwin/BulkDock/SCRATCH/511015/C14621-P95/C14621-P95.minimised.mol

>  <scratch_subdir>  (724) 
/opt/xchem-fragalysis-2/maxwin/BulkDock/SCRATCH/511015/C14621-P95

>  <fragmenstein_runtime>  (724) 
13.362971544265747

>  <fragmenstein_outcome>  (724) 
too moved

>  <fragmenstein_mode>  (724) 
expansion

>  <fragmenstein_error>  (724) 


$$$$
C14621-P30
     RDKit          3D

 47 48  0  0  0  0  0  0  0  0999 V2000
  -10.7454  -19.8099   13.8284 C   0  0  0  0  0  0  0  0  0  0  0  0
  -10.8847  -18.2488   14.1673 C   0  0  0  0  0  0  0  0  0  0  0  0
  -10.0347  -16.8007   13.4088 C   0  0  0  0  0  0  0  0  0  0  0  0
   -8.7944  -17.9629   12.6484 C   0  0  0  0  0  0  0  0  0  0  0  0
   -7.7810  -19.4695   12.1655 N   0  0  0  0  0  0  0  0  0  0  0  0
   -8.1912  -20.7547   11.7629 C   0  0  0  0  0  0  0  0  0  0  0  0
   -6.9430  -21.4950   12.2838 C   0  0  0  0  0  0  0  0  0  0  0  0
   -5.7720  -20.6514   11.7993 C   0  0  0  0  0  0  0  0  0  0  0  0
   -6.3399  -19.2498   11.8096 C   0  0  0  0  0  0  0  0  0  0  0  0
  -10.1227  -15.1081   12.5552 N   0  0  0  0  0  0  0  0  0  0  0  0
  -11.2119  -14.2499   12.2709 C   0  0  0  0  0  0  0  0  0  0  0  0
  -12.3693  -14.3355   12.5825 O   0  0  0  0  0  0  0  0  0  0  0  0
  -10.6334  -12.8166   11.0558 C   0  0  0  0  0  0  0  0  0  0  0  0
  -10.4166  -11.8876    9.9639 C   0  0  0  0  0  0  0  0  0  0  0  0
   -9.7001  -10.6084    8.4665 C   0  0  0  0  0  0  0  0  0  0  0  0
   -8.2413   -9.0024    8.6376 C   0  0  0  0  0  0  0  0  0  0  0  0
   -8.8941  -11.4257    7.6379 C   0  0  0  0  0  0  0  0  0  0  0  0
   -9.4969  -10.7664    6.5408 C   0  0  0  0  0  0  0  0  0  0  0  0
   -9.6642   -9.0763    7.0723 C   0  0  0  0  0  0  0  0  0  0  0  0
  -10.4161   -9.4860    8.2666 N   0  0  0  0  0  0  0  0  0  0  0  0
  -10.2824  -20.4261   14.6042 H   0  0  0  0  0  0  0  0  0  0  0  0
  -10.1726  -19.9986   12.9616 H   0  0  0  0  0  0  0  0  0  0  0  0
  -11.6906  -20.2896   13.6373 H   0  0  0  0  0  0  0  0  0  0  0  0
  -10.5207  -18.4012   15.2012 H   0  0  0  0  0  0  0  0  0  0  0  0
  -11.8535  -18.0081   14.4100 H   0  0  0  0  0  0  0  0  0  0  0  0
  -10.8653  -16.8064   12.7726 H   0  0  0  0  0  0  0  0  0  0  0  0
   -9.4222  -18.3401   11.8943 H   0  0  0  0  0  0  0  0  0  0  0  0
   -7.9321  -17.4235   12.9049 H   0  0  0  0  0  0  0  0  0  0  0  0
   -8.3467  -20.5859   10.7042 H   0  0  0  0  0  0  0  0  0  0  0  0
   -9.0508  -21.2813   12.1755 H   0  0  0  0  0  0  0  0  0  0  0  0
   -6.8055  -22.5544   12.0551 H   0  0  0  0  0  0  0  0  0  0  0  0
   -7.0505  -21.5177   13.3617 H   0  0  0  0  0  0  0  0  0  0  0  0
   -4.8583  -20.7219   12.3890 H   0  0  0  0  0  0  0  0  0  0  0  0
   -5.4552  -20.9437   10.7976 H   0  0  0  0  0  0  0  0  0  0  0  0
   -5.8295  -18.6081   12.5348 H   0  0  0  0  0  0  0  0  0  0  0  0
   -6.1772  -18.8268   10.8174 H   0  0  0  0  0  0  0  0  0  0  0  0
   -9.3284  -14.7046   12.2275 H   0  0  0  0  0  0  0  0  0  0  0  0
   -8.0280   -8.7049    9.6936 H   0  0  0  0  0  0  0  0  0  0  0  0
   -8.5925   -8.0847    8.2724 H   0  0  0  0  0  0  0  0  0  0  0  0
   -7.1944   -9.0018    8.2523 H   0  0  0  0  0  0  0  0  0  0  0  0
   -7.9115  -11.2123    7.8732 H   0  0  0  0  0  0  0  0  0  0  0  0
   -9.1353  -12.4994    7.7533 H   0  0  0  0  0  0  0  0  0  0  0  0
   -9.8654  -11.7222    6.2261 H   0  0  0  0  0  0  0  0  0  0  0  0
   -9.5992  -10.6482    5.4561 H   0  0  0  0  0  0  0  0  0  0  0  0
   -9.9133   -8.9204    5.8592 H   0  0  0  0  0  0  0  0  0  0  0  0
  -10.0592   -8.1005    6.5670 H   0  0  0  0  0  0  0  0  0  0  0  0
  -10.3780   -9.1085    9.1984 H   0  0  0  0  0  0  0  0  0  0  0  0
  1  2  1  0
  2  3  1  0
  3  4  1  0
  4  5  1  0
  5  6  1  0
  6  7  1  0
  7  8  1  0
  8  9  1  0
  3 10  1  0
 10 11  1  0
 11 12  2  0
 11 13  1  0
 13 14  3  0
 14 15  1  0
 15 16  1  0
 15 17  1  0
 17 18  1  0
 18 19  1  0
 19 20  1  0
  9  5  1  0
 20 15  1  0
  1 21  1  0
  1 22  1  0
  1 23  1  0
  2 24  1  0
  2 25  1  0
  3 26  1  0
  4 27  1  0
  4 28  1  0
  6 29  1  0
  6 30  1  0
  7 31  1  0
  7 32  1  0
  8 33  1  0
  8 34  1  0
  9 35  1  0
  9 36  1  0
 10 37  1  0
 16 38  1  0
 16 39  1  0
 16 40  1  0
 17 41  1  0
 17 42  1  0
 18 43  1  0
 18 44  1  0
 19 45  1  0
 19 46  1  0
 20 47  1  0
M  END
>  <Energy>  (725) 
929.05174191339358

>  <compound_id>  (725) 
14621

>  <target_id>  (725) 
1

>  <reference_id>  (725) 
30

>  <inspiration_ids>  (725) 
[95, 30]

>  <energy_score>  (725) 
871.9618974623259

>  <distance_score>  (725) 
8.886684576484763

>  <path>  (725) 
/opt/xchem-fragalysis-2/maxwin/BulkDock/SCRATCH/511015/C14621-P30/C14621-P30.minimised.mol

>  <scratch_subdir>  (725) 
/opt/xchem-fragalysis-2/maxwin/BulkDock/SCRATCH/511015/C14621-P30

>  <fragmenstein_runtime>  (725) 
14.791979551315308

>  <fragmenstein_outcome>  (725) 
too moved

>  <fragmenstein_mode>  (725) 
expansion

>  <fragmenstein_error>  (725) 


$$$$
C14607-P95
     RDKit          3D

 44 46  0  0  0  0  0  0  0  0999 V2000
  -11.8171  -21.3753    8.2629 O   0  0  0  0  0  0  0  0  0  0  0  0
  -10.9577  -20.8021    8.9536 C   0  0  0  0  0  0  0  0  0  0  0  0
  -10.7451  -18.7839    8.3476 C   0  0  0  0  0  0  0  0  0  0  0  0
  -11.4206  -16.9985    7.6272 O   0  0  0  0  0  0  0  0  0  0  0  0
  -10.7854  -15.2477    6.8929 C   0  0  0  0  0  0  0  0  0  0  0  0
   -9.8647  -13.5931    8.0405 C   0  0  0  0  0  0  0  0  0  0  0  0
   -9.0253  -11.9752    7.5683 C   0  0  0  0  0  0  0  0  0  0  0  0
   -9.6441  -12.7813    6.6274 N   0  0  0  0  0  0  0  0  0  0  0  0
   -9.1656  -14.0383    6.5961 C   0  0  0  0  0  0  0  0  0  0  0  0
  -10.1062  -21.6594   10.4676 N   0  0  0  0  0  0  0  0  0  0  0  0
  -10.7210  -21.5910   12.2396 C   0  0  0  0  0  0  0  0  0  0  0  0
  -10.0348  -22.4897   13.2339 C   0  0  0  0  0  0  0  0  0  0  0  0
   -9.1132  -22.8770   12.2172 C   0  0  0  0  0  0  0  0  0  0  0  0
   -8.0805  -21.7397   12.0535 N   0  0  0  0  0  0  0  0  0  0  0  0
   -6.7103  -22.0812   12.1661 C   0  0  0  0  0  0  0  0  0  0  0  0
   -5.7702  -21.0685   11.4927 C   0  0  0  0  0  0  0  0  0  0  0  0
   -6.6354  -19.8711   11.3174 C   0  0  0  0  0  0  0  0  0  0  0  0
   -8.0814  -20.4113   11.3624 C   0  0  0  0  0  0  0  0  0  0  0  0
  -10.2097  -23.1158   11.0123 C   0  0  0  0  0  0  0  0  0  0  0  0
  -10.8788  -18.5055    9.3856 H   0  0  0  0  0  0  0  0  0  0  0  0
   -9.7469  -18.8087    7.9086 H   0  0  0  0  0  0  0  0  0  0  0  0
  -11.8081  -15.0137    6.4328 H   0  0  0  0  0  0  0  0  0  0  0  0
  -10.3865  -12.9814    8.8497 H   0  0  0  0  0  0  0  0  0  0  0  0
   -9.3279  -13.9051    8.9679 H   0  0  0  0  0  0  0  0  0  0  0  0
   -9.2532  -11.1091    6.9103 H   0  0  0  0  0  0  0  0  0  0  0  0
   -9.4327  -11.1272    8.1209 H   0  0  0  0  0  0  0  0  0  0  0  0
   -9.8792  -12.4364    5.7133 H   0  0  0  0  0  0  0  0  0  0  0  0
   -8.1842  -14.2435    6.9027 H   0  0  0  0  0  0  0  0  0  0  0  0
   -8.6662  -13.7670    5.6319 H   0  0  0  0  0  0  0  0  0  0  0  0
  -11.7429  -21.9479   12.3946 H   0  0  0  0  0  0  0  0  0  0  0  0
  -10.5387  -20.5979   12.6615 H   0  0  0  0  0  0  0  0  0  0  0  0
   -9.6221  -22.0159   14.1241 H   0  0  0  0  0  0  0  0  0  0  0  0
  -10.6628  -23.3276   13.5591 H   0  0  0  0  0  0  0  0  0  0  0  0
   -8.6655  -23.8495   12.4186 H   0  0  0  0  0  0  0  0  0  0  0  0
   -6.4655  -23.1152   11.9011 H   0  0  0  0  0  0  0  0  0  0  0  0
   -6.7584  -21.8938   13.2048 H   0  0  0  0  0  0  0  0  0  0  0  0
   -5.3649  -21.4437   10.5472 H   0  0  0  0  0  0  0  0  0  0  0  0
   -4.8748  -20.7763   12.0445 H   0  0  0  0  0  0  0  0  0  0  0  0
   -6.4007  -19.1282   12.0747 H   0  0  0  0  0  0  0  0  0  0  0  0
   -6.3910  -19.3618   10.3831 H   0  0  0  0  0  0  0  0  0  0  0  0
   -8.7912  -19.6983   11.7667 H   0  0  0  0  0  0  0  0  0  0  0  0
   -8.3610  -20.3739   10.3151 H   0  0  0  0  0  0  0  0  0  0  0  0
  -11.2345  -23.4520   11.2382 H   0  0  0  0  0  0  0  0  0  0  0  0
   -9.7450  -24.0541   10.6429 H   0  0  0  0  0  0  0  0  0  0  0  0
  1  2  2  0
  2  3  1  0
  3  4  1  0
  4  5  1  0
  5  6  1  0
  6  7  1  0
  7  8  1  0
  8  9  1  0
  2 10  1  0
 10 11  1  0
 11 12  1  0
 12 13  1  0
 13 14  1  0
 14 15  1  0
 15 16  1  0
 16 17  1  0
 17 18  1  0
 13 19  1  0
  9  5  1  0
 19 10  1  0
 18 14  1  0
  3 20  1  0
  3 21  1  0
  5 22  1  0
  6 23  1  0
  6 24  1  0
  7 25  1  0
  7 26  1  0
  8 27  1  0
  9 28  1  0
  9 29  1  0
 11 30  1  0
 11 31  1  0
 12 32  1  0
 12 33  1  0
 13 34  1  0
 15 35  1  0
 15 36  1  0
 16 37  1  0
 16 38  1  0
 17 39  1  0
 17 40  1  0
 18 41  1  0
 18 42  1  0
 19 43  1  0
 19 44  1  0
M  END
>  <Energy>  (726) 
1299.6717801125778

>  <compound_id>  (726) 
14607

>  <target_id>  (726) 
1

>  <reference_id>  (726) 
95

>  <inspiration_ids>  (726) 
[95, 30]

>  <energy_score>  (726) 
1191.379732878123

>  <distance_score>  (726) 
8.450071971299593

>  <path>  (726) 
/opt/xchem-fragalysis-2/maxwin/BulkDock/SCRATCH/511015/C14607-P95/C14607-P95.minimised.mol

>  <scratch_subdir>  (726) 
/opt/xchem-fragalysis-2/maxwin/BulkDock/SCRATCH/511015/C14607-P95

>  <fragmenstein_runtime>  (726) 
14.060808897018433

>  <fragmenstein_outcome>  (726) 
too moved

>  <fragmenstein_mode>  (726) 
expansion

>  <fragmenstein_error>  (726) 


$$$$
C14607-P30
     RDKit          3D

 44 46  0  0  0  0  0  0  0  0999 V2000
  -10.3732  -14.9836   11.8830 O   0  0  0  0  0  0  0  0  0  0  0  0
   -9.9834  -15.1638   12.9712 C   0  0  0  0  0  0  0  0  0  0  0  0
   -9.7730  -13.4986   13.8266 C   0  0  0  0  0  0  0  0  0  0  0  0
   -9.6765  -12.0623   12.5621 O   0  0  0  0  0  0  0  0  0  0  0  0
   -9.9574  -10.1953   12.4611 C   0  0  0  0  0  0  0  0  0  0  0  0
   -9.1077   -8.5638   11.6205 C   0  0  0  0  0  0  0  0  0  0  0  0
   -9.8920   -6.3258   11.2109 C   0  0  0  0  0  0  0  0  0  0  0  0
   -9.2301   -8.4355   10.8035 N   0  0  0  0  0  0  0  0  0  0  0  0
  -10.3717   -9.6603   10.9262 C   0  0  0  0  0  0  0  0  0  0  0  0
   -9.5002  -16.8686   13.4424 N   0  0  0  0  0  0  0  0  0  0  0  0
  -10.7146  -17.9089   14.1143 C   0  0  0  0  0  0  0  0  0  0  0  0
  -10.7459  -19.5863   13.8445 C   0  0  0  0  0  0  0  0  0  0  0  0
   -9.8676  -19.9376   12.6667 C   0  0  0  0  0  0  0  0  0  0  0  0
   -9.0866  -21.1812   11.7861 N   0  0  0  0  0  0  0  0  0  0  0  0
  -10.2212  -22.1723   11.1280 C   0  0  0  0  0  0  0  0  0  0  0  0
  -10.7986  -21.3652    9.4721 C   0  0  0  0  0  0  0  0  0  0  0  0
   -9.7965  -20.2384    9.2575 C   0  0  0  0  0  0  0  0  0  0  0  0
   -8.6819  -20.4195   10.5199 C   0  0  0  0  0  0  0  0  0  0  0  0
   -9.3874  -18.1832   12.6087 C   0  0  0  0  0  0  0  0  0  0  0  0
   -8.6813  -13.4864   13.9611 H   0  0  0  0  0  0  0  0  0  0  0  0
  -10.1013  -13.2177   14.8359 H   0  0  0  0  0  0  0  0  0  0  0  0
   -9.0171  -10.2835   13.0199 H   0  0  0  0  0  0  0  0  0  0  0  0
   -8.0416   -8.5369   12.2157 H   0  0  0  0  0  0  0  0  0  0  0  0
   -9.0479   -8.6867   12.9741 H   0  0  0  0  0  0  0  0  0  0  0  0
  -10.9761   -5.8827   11.7392 H   0  0  0  0  0  0  0  0  0  0  0  0
   -9.2475   -5.2730   11.5336 H   0  0  0  0  0  0  0  0  0  0  0  0
   -8.7152   -8.5284    9.8663 H   0  0  0  0  0  0  0  0  0  0  0  0
  -11.3657   -9.3613   10.5945 H   0  0  0  0  0  0  0  0  0  0  0  0
  -10.4439  -10.3384   10.0714 H   0  0  0  0  0  0  0  0  0  0  0  0
  -10.5155  -18.2495   15.1566 H   0  0  0  0  0  0  0  0  0  0  0  0
  -11.6093  -17.4131   14.0488 H   0  0  0  0  0  0  0  0  0  0  0  0
  -11.7335  -20.0123   13.7169 H   0  0  0  0  0  0  0  0  0  0  0  0
  -10.3199  -20.0766   14.7339 H   0  0  0  0  0  0  0  0  0  0  0  0
  -10.0765  -20.8968   13.2271 H   0  0  0  0  0  0  0  0  0  0  0  0
   -9.9735  -23.2341   11.0956 H   0  0  0  0  0  0  0  0  0  0  0  0
  -10.9273  -22.3419   11.9554 H   0  0  0  0  0  0  0  0  0  0  0  0
  -11.6996  -20.7593    9.3897 H   0  0  0  0  0  0  0  0  0  0  0  0
  -11.2698  -21.9837    8.6854 H   0  0  0  0  0  0  0  0  0  0  0  0
   -9.4296  -20.0536    8.2502 H   0  0  0  0  0  0  0  0  0  0  0  0
  -10.4067  -19.3278    9.3694 H   0  0  0  0  0  0  0  0  0  0  0  0
   -8.8038  -19.5575   11.0235 H   0  0  0  0  0  0  0  0  0  0  0  0
   -7.6239  -20.2472   10.3811 H   0  0  0  0  0  0  0  0  0  0  0  0
   -9.5855  -18.1319   11.5937 H   0  0  0  0  0  0  0  0  0  0  0  0
   -8.3207  -18.0825   12.6649 H   0  0  0  0  0  0  0  0  0  0  0  0
  1  2  2  0
  2  3  1  0
  3  4  1  0
  4  5  1  0
  5  6  1  0
  6  7  1  0
  7  8  1  0
  8  9  1  0
  2 10  1  0
 10 11  1  0
 11 12  1  0
 12 13  1  0
 13 14  1  0
 14 15  1  0
 15 16  1  0
 16 17  1  0
 17 18  1  0
 13 19  1  0
  9  5  1  0
 19 10  1  0
 18 14  1  0
  3 20  1  0
  3 21  1  0
  5 22  1  0
  6 23  1  0
  6 24  1  0
  7 25  1  0
  7 26  1  0
  8 27  1  0
  9 28  1  0
  9 29  1  0
 11 30  1  0
 11 31  1  0
 12 32  1  0
 12 33  1  0
 13 34  1  0
 15 35  1  0
 15 36  1  0
 16 37  1  0
 16 38  1  0
 17 39  1  0
 17 40  1  0
 18 41  1  0
 18 42  1  0
 19 43  1  0
 19 44  1  0
M  END
>  <Energy>  (727) 
1789.6456534502379

>  <compound_id>  (727) 
14607

>  <target_id>  (727) 
1

>  <reference_id>  (727) 
30

>  <inspiration_ids>  (727) 
[95, 30]

>  <energy_score>  (727) 
1681.35360621579

>  <distance_score>  (727) 
8.201681500369316

>  <path>  (727) 
/opt/xchem-fragalysis-2/maxwin/BulkDock/SCRATCH/511015/C14607-P30/C14607-P30.minimised.mol

>  <scratch_subdir>  (727) 
/opt/xchem-fragalysis-2/maxwin/BulkDock/SCRATCH/511015/C14607-P30

>  <fragmenstein_runtime>  (727) 
12.70102572441101

>  <fragmenstein_outcome>  (727) 
too moved

>  <fragmenstein_mode>  (727) 
expansion

>  <fragmenstein_error>  (727) 


$$$$
C69649-P2
     RDKit          3D

 44 46  0  0  0  0  0  0  0  0999 V2000
  -15.3548  -23.0313   23.8487 C   0  0  0  0  0  0  0  0  0  0  0  0
  -13.9187  -22.7438   23.6673 C   0  0  0  0  0  0  0  0  0  0  0  0
  -12.9986  -22.9393   24.5511 N   0  0  0  0  0  0  0  0  0  0  0  0
  -11.8803  -22.6721   23.8380 C   0  0  0  0  0  0  0  0  0  0  0  0
  -10.7187  -23.3368   24.0837 C   0  0  0  0  0  0  0  0  0  0  0  0
   -9.6515  -22.8144   23.3536 C   0  0  0  0  0  0  0  0  0  0  0  0
   -9.8096  -21.7237   22.5434 C   0  0  0  0  0  0  0  0  0  0  0  0
  -10.8540  -21.6739   21.6659 C   0  0  0  0  0  0  0  0  0  0  0  0
   -9.9965  -21.7346   20.0093 C   0  0  0  0  0  0  0  0  0  0  0  0
   -9.0391  -20.8942   17.9232 S   0  0  0  0  0  0  0  0  0  0  0  0
   -9.8833  -22.0968   15.9450 C   0  0  0  0  0  0  0  0  0  0  0  0
   -9.0828  -23.1722   15.3327 C   0  0  0  0  0  0  0  0  0  0  0  0
  -10.4363  -21.9391   14.0730 C   0  0  0  0  0  0  0  0  0  0  0  0
  -11.0866  -20.9829   13.7729 O   0  0  0  0  0  0  0  0  0  0  0  0
   -9.8981  -22.9939   13.1451 N   0  0  0  0  0  0  0  0  0  0  0  0
   -9.9136  -23.0917   11.6477 C   0  0  0  0  0  0  0  0  0  0  0  0
   -9.0373  -24.1842   11.0405 C   0  0  0  0  0  0  0  0  0  0  0  0
   -9.7528  -25.5002   11.2160 C   0  0  0  0  0  0  0  0  0  0  0  0
  -10.3364  -25.5264   12.6125 C   0  0  0  0  0  0  0  0  0  0  0  0
  -10.9161  -24.1541   13.0020 C   0  0  0  0  0  0  0  0  0  0  0  0
  -12.0023  -22.1111   22.5377 C   0  0  0  0  0  0  0  0  0  0  0  0
  -13.3957  -22.4723   22.4077 O   0  0  0  0  0  0  0  0  0  0  0  0
  -15.6878  -23.8024   23.1485 H   0  0  0  0  0  0  0  0  0  0  0  0
  -15.5434  -23.4242   24.8506 H   0  0  0  0  0  0  0  0  0  0  0  0
  -15.9533  -22.1272   23.7107 H   0  0  0  0  0  0  0  0  0  0  0  0
  -10.6272  -24.0798   24.8673 H   0  0  0  0  0  0  0  0  0  0  0  0
   -8.6424  -23.2035   23.4852 H   0  0  0  0  0  0  0  0  0  0  0  0
   -8.9072  -21.2188   22.2934 H   0  0  0  0  0  0  0  0  0  0  0  0
   -9.0872  -21.3748   20.4190 H   0  0  0  0  0  0  0  0  0  0  0  0
  -10.6116  -20.8317   20.0995 H   0  0  0  0  0  0  0  0  0  0  0  0
   -9.9876  -21.0594   15.6945 H   0  0  0  0  0  0  0  0  0  0  0  0
   -9.7330  -23.9404   14.9387 H   0  0  0  0  0  0  0  0  0  0  0  0
   -8.6277  -23.9065   15.9165 H   0  0  0  0  0  0  0  0  0  0  0  0
   -8.3260  -22.7281   14.7014 H   0  0  0  0  0  0  0  0  0  0  0  0
   -9.4024  -22.1550   11.3752 H   0  0  0  0  0  0  0  0  0  0  0  0
  -10.8759  -22.9559   11.1345 H   0  0  0  0  0  0  0  0  0  0  0  0
   -8.8641  -23.9909    9.9761 H   0  0  0  0  0  0  0  0  0  0  0  0
   -8.0581  -24.2070   11.5311 H   0  0  0  0  0  0  0  0  0  0  0  0
  -10.5653  -25.5749   10.4827 H   0  0  0  0  0  0  0  0  0  0  0  0
   -9.0827  -26.3488   11.0455 H   0  0  0  0  0  0  0  0  0  0  0  0
  -11.1189  -26.2914   12.6724 H   0  0  0  0  0  0  0  0  0  0  0  0
   -9.5631  -25.8131   13.3314 H   0  0  0  0  0  0  0  0  0  0  0  0
  -11.3497  -24.3065   13.9976 H   0  0  0  0  0  0  0  0  0  0  0  0
  -11.8354  -23.8871   12.4530 H   0  0  0  0  0  0  0  0  0  0  0  0
  1  2  1  0
  2  3  2  0
  3  4  1  0
  4  5  2  0
  5  6  1  0
  6  7  2  0
  7  8  1  0
  8  9  1  0
  9 10  1  0
 10 11  1  0
 11 12  1  0
 11 13  1  0
 13 14  2  0
 13 15  1  0
 15 16  1  0
 16 17  1  0
 17 18  1  0
 18 19  1  0
 19 20  1  0
  8 21  2  0
 21 22  1  0
 22  2  1  0
 21  4  1  0
 20 15  1  0
  1 23  1  0
  1 24  1  0
  1 25  1  0
  5 26  1  0
  6 27  1  0
  7 28  1  0
  9 29  1  0
  9 30  1  0
 11 31  1  0
 12 32  1  0
 12 33  1  0
 12 34  1  0
 16 35  1  0
 16 36  1  0
 17 37  1  0
 17 38  1  0
 18 39  1  0
 18 40  1  0
 19 41  1  0
 19 42  1  0
 20 43  1  0
 20 44  1  0
M  END
>  <Energy>  (728) 
666.91665309601092

>  <compound_id>  (728) 
69649

>  <target_id>  (728) 
1

>  <reference_id>  (728) 
2

>  <inspiration_ids>  (728) 
[2, 46]

>  <energy_score>  (728) 
563.2710808508187

>  <distance_score>  (728) 
7.3319524338222575

>  <path>  (728) 
/opt/xchem-fragalysis-2/maxwin/BulkDock/SCRATCH/511015/C69649-P2/C69649-P2.minimised.mol

>  <scratch_subdir>  (728) 
/opt/xchem-fragalysis-2/maxwin/BulkDock/SCRATCH/511015/C69649-P2

>  <fragmenstein_runtime>  (728) 
17.292210817337036

>  <fragmenstein_outcome>  (728) 
too moved

>  <fragmenstein_mode>  (728) 
expansion

>  <fragmenstein_error>  (728) 


$$$$
C69649-P46
     RDKit          3D

 44 46  0  0  0  0  0  0  0  0999 V2000
  -14.7472  -23.3871   23.9084 C   0  0  0  0  0  0  0  0  0  0  0  0
  -13.4107  -22.9051   23.5029 C   0  0  0  0  0  0  0  0  0  0  0  0
  -12.2769  -22.9310   24.1566 N   0  0  0  0  0  0  0  0  0  0  0  0
  -11.6116  -22.0146   23.3886 C   0  0  0  0  0  0  0  0  0  0  0  0
  -11.5818  -20.7046   23.8423 C   0  0  0  0  0  0  0  0  0  0  0  0
  -11.7310  -19.7224   22.9395 C   0  0  0  0  0  0  0  0  0  0  0  0
  -11.6385  -20.1277   21.5945 C   0  0  0  0  0  0  0  0  0  0  0  0
  -11.2933  -21.3811   20.9105 C   0  0  0  0  0  0  0  0  0  0  0  0
   -9.7716  -21.4640   19.8692 C   0  0  0  0  0  0  0  0  0  0  0  0
   -8.9118  -20.7698   17.7472 S   0  0  0  0  0  0  0  0  0  0  0  0
   -9.6243  -21.8813   15.7126 C   0  0  0  0  0  0  0  0  0  0  0  0
   -9.6529  -23.3586   15.2626 C   0  0  0  0  0  0  0  0  0  0  0  0
   -9.1057  -21.9365   14.1425 C   0  0  0  0  0  0  0  0  0  0  0  0
   -7.9135  -22.0120   14.0068 O   0  0  0  0  0  0  0  0  0  0  0  0
  -10.2212  -21.9440   13.0901 N   0  0  0  0  0  0  0  0  0  0  0  0
  -10.1427  -21.9355   11.6343 C   0  0  0  0  0  0  0  0  0  0  0  0
   -9.1601  -22.7892   10.8813 C   0  0  0  0  0  0  0  0  0  0  0  0
   -9.6094  -24.2135   10.7467 C   0  0  0  0  0  0  0  0  0  0  0  0
   -9.9618  -24.6071   12.1417 C   0  0  0  0  0  0  0  0  0  0  0  0
  -10.7478  -23.4586   12.8000 C   0  0  0  0  0  0  0  0  0  0  0  0
  -11.7594  -22.1982   22.0090 C   0  0  0  0  0  0  0  0  0  0  0  0
  -13.1983  -22.5721   22.1701 O   0  0  0  0  0  0  0  0  0  0  0  0
  -15.3965  -22.5426   24.1536 H   0  0  0  0  0  0  0  0  0  0  0  0
  -15.2142  -23.9534   23.0969 H   0  0  0  0  0  0  0  0  0  0  0  0
  -14.6719  -24.0471   24.7767 H   0  0  0  0  0  0  0  0  0  0  0  0
  -11.8375  -20.5922   24.8749 H   0  0  0  0  0  0  0  0  0  0  0  0
  -12.0416  -18.7134   23.1850 H   0  0  0  0  0  0  0  0  0  0  0  0
  -12.1312  -19.3469   20.9979 H   0  0  0  0  0  0  0  0  0  0  0  0
   -9.0473  -21.3833   20.6440 H   0  0  0  0  0  0  0  0  0  0  0  0
   -9.8037  -20.4278   19.7390 H   0  0  0  0  0  0  0  0  0  0  0  0
  -10.0929  -21.0020   15.3341 H   0  0  0  0  0  0  0  0  0  0  0  0
   -9.3406  -23.8233   14.3334 H   0  0  0  0  0  0  0  0  0  0  0  0
  -10.5450  -23.9605   15.3377 H   0  0  0  0  0  0  0  0  0  0  0  0
   -8.8073  -23.7616   15.7233 H   0  0  0  0  0  0  0  0  0  0  0  0
   -9.7784  -20.9167   11.4511 H   0  0  0  0  0  0  0  0  0  0  0  0
  -11.0846  -22.0902   11.1326 H   0  0  0  0  0  0  0  0  0  0  0  0
   -9.1271  -22.3647    9.8777 H   0  0  0  0  0  0  0  0  0  0  0  0
   -8.2108  -22.7616   11.4103 H   0  0  0  0  0  0  0  0  0  0  0  0
  -10.4875  -24.2806   10.0935 H   0  0  0  0  0  0  0  0  0  0  0  0
   -8.8317  -24.8565   10.3237 H   0  0  0  0  0  0  0  0  0  0  0  0
   -9.0624  -24.8813   12.6842 H   0  0  0  0  0  0  0  0  0  0  0  0
  -10.5847  -25.5096   12.1212 H   0  0  0  0  0  0  0  0  0  0  0  0
  -11.7152  -23.3717   12.2659 H   0  0  0  0  0  0  0  0  0  0  0  0
  -11.2053  -23.8599   13.6910 H   0  0  0  0  0  0  0  0  0  0  0  0
  1  2  1  0
  2  3  2  0
  3  4  1  0
  4  5  2  0
  5  6  1  0
  6  7  2  0
  7  8  1  0
  8  9  1  0
  9 10  1  0
 10 11  1  0
 11 12  1  0
 11 13  1  0
 13 14  2  0
 13 15  1  0
 15 16  1  0
 16 17  1  0
 17 18  1  0
 18 19  1  0
 19 20  1  0
  8 21  2  0
 21 22  1  0
 22  2  1  0
 21  4  1  0
 20 15  1  0
  1 23  1  0
  1 24  1  0
  1 25  1  0
  5 26  1  0
  6 27  1  0
  7 28  1  0
  9 29  1  0
  9 30  1  0
 11 31  1  0
 12 32  1  0
 12 33  1  0
 12 34  1  0
 16 35  1  0
 16 36  1  0
 17 37  1  0
 17 38  1  0
 18 39  1  0
 18 40  1  0
 19 41  1  0
 19 42  1  0
 20 43  1  0
 20 44  1  0
M  END
>  <Energy>  (729) 
633.40187952407462

>  <compound_id>  (729) 
69649

>  <target_id>  (729) 
1

>  <reference_id>  (729) 
46

>  <inspiration_ids>  (729) 
[2, 46]

>  <energy_score>  (729) 
529.7563072788847

>  <distance_score>  (729) 
7.469846853278943

>  <path>  (729) 
/opt/xchem-fragalysis-2/maxwin/BulkDock/SCRATCH/511015/C69649-P46/C69649-P46.minimised.mol

>  <scratch_subdir>  (729) 
/opt/xchem-fragalysis-2/maxwin/BulkDock/SCRATCH/511015/C69649-P46

>  <fragmenstein_runtime>  (729) 
12.470887184143066

>  <fragmenstein_outcome>  (729) 
too moved

>  <fragmenstein_mode>  (729) 
expansion

>  <fragmenstein_error>  (729) 


$$$$
C69654-P2
     RDKit          3D

 44 47  0  0  0  0  0  0  0  0999 V2000
   -8.1690  -19.7602   20.0339 O   0  0  0  0  0  0  0  0  0  0  0  0
   -8.8473  -20.7079   19.5006 C   0  0  0  0  0  0  0  0  0  0  0  0
   -9.9641  -21.6160   20.7924 C   0  0  0  0  0  0  0  0  0  0  0  0
  -11.4937  -21.4108   21.4990 C   0  0  0  0  0  0  0  0  0  0  0  0
  -11.7691  -21.5869   23.1836 N   0  0  0  0  0  0  0  0  0  0  0  0
  -12.9409  -22.1239   23.8325 C   0  0  0  0  0  0  0  0  0  0  0  0
  -12.9574  -23.1826   24.6565 N   0  0  0  0  0  0  0  0  0  0  0  0
  -14.2637  -23.5510   24.8068 C   0  0  0  0  0  0  0  0  0  0  0  0
  -14.8652  -24.7164   25.2987 C   0  0  0  0  0  0  0  0  0  0  0  0
  -16.2704  -24.7768   25.3070 C   0  0  0  0  0  0  0  0  0  0  0  0
  -17.0440  -23.6760   24.9117 C   0  0  0  0  0  0  0  0  0  0  0  0
  -16.4468  -22.5127   24.3975 C   0  0  0  0  0  0  0  0  0  0  0  0
  -15.0520  -22.5435   24.3157 C   0  0  0  0  0  0  0  0  0  0  0  0
  -14.2222  -21.6453   23.6969 O   0  0  0  0  0  0  0  0  0  0  0  0
  -10.8082  -22.6053   23.4832 C   0  0  0  0  0  0  0  0  0  0  0  0
   -9.4233  -22.4684   23.0058 C   0  0  0  0  0  0  0  0  0  0  0  0
   -9.2894  -21.5016   22.0422 O   0  0  0  0  0  0  0  0  0  0  0  0
   -8.6329  -20.6942   18.0408 N   0  0  0  0  0  0  0  0  0  0  0  0
   -9.4259  -19.9952   17.2994 C   0  0  0  0  0  0  0  0  0  0  0  0
   -9.9742  -21.2981   15.9073 C   0  0  0  0  0  0  0  0  0  0  0  0
   -9.5657  -22.4795   15.0360 C   0  0  0  0  0  0  0  0  0  0  0  0
   -8.1551  -22.5446   15.4279 C   0  0  0  0  0  0  0  0  0  0  0  0
   -7.5242  -21.4259   17.1288 C   0  0  0  0  0  0  0  0  0  0  0  0
  -10.0701  -22.5900   20.4058 H   0  0  0  0  0  0  0  0  0  0  0  0
  -12.1192  -22.1753   21.0392 H   0  0  0  0  0  0  0  0  0  0  0  0
  -11.7238  -20.4020   21.2893 H   0  0  0  0  0  0  0  0  0  0  0  0
  -14.2618  -25.5396   25.6602 H   0  0  0  0  0  0  0  0  0  0  0  0
  -16.7669  -25.6705   25.6813 H   0  0  0  0  0  0  0  0  0  0  0  0
  -18.1294  -23.7307   24.9886 H   0  0  0  0  0  0  0  0  0  0  0  0
  -17.0295  -21.6646   24.0586 H   0  0  0  0  0  0  0  0  0  0  0  0
  -11.3155  -23.1981   22.8050 H   0  0  0  0  0  0  0  0  0  0  0  0
  -10.8731  -23.2781   24.3549 H   0  0  0  0  0  0  0  0  0  0  0  0
   -8.5797  -22.2561   23.6051 H   0  0  0  0  0  0  0  0  0  0  0  0
   -8.9718  -23.4503   22.9017 H   0  0  0  0  0  0  0  0  0  0  0  0
  -10.0585  -19.7556   18.1383 H   0  0  0  0  0  0  0  0  0  0  0  0
   -9.4170  -18.8614   17.1815 H   0  0  0  0  0  0  0  0  0  0  0  0
   -9.9498  -22.0962   16.5850 H   0  0  0  0  0  0  0  0  0  0  0  0
  -10.4842  -20.8363   15.1069 H   0  0  0  0  0  0  0  0  0  0  0  0
  -10.0813  -23.4310   15.2030 H   0  0  0  0  0  0  0  0  0  0  0  0
   -9.7418  -22.3375   13.9617 H   0  0  0  0  0  0  0  0  0  0  0  0
   -7.9412  -23.5442   15.6418 H   0  0  0  0  0  0  0  0  0  0  0  0
   -7.7629  -22.2645   14.4469 H   0  0  0  0  0  0  0  0  0  0  0  0
   -6.8689  -22.1331   17.5750 H   0  0  0  0  0  0  0  0  0  0  0  0
   -6.5395  -21.0379   17.3096 H   0  0  0  0  0  0  0  0  0  0  0  0
  1  2  2  0
  2  3  1  0
  3  4  1  0
  4  5  1  0
  5  6  1  0
  6  7  2  0
  7  8  1  0
  8  9  2  0
  9 10  1  0
 10 11  2  0
 11 12  1  0
 12 13  2  0
 13 14  1  0
  5 15  1  0
 15 16  1  0
 16 17  1  0
  2 18  1  0
 18 19  1  0
 19 20  1  0
 20 21  1  0
 21 22  1  0
 22 23  1  0
 17  3  1  0
 23 18  1  0
 14  6  1  0
 13  8  1  0
  3 24  1  0
  4 25  1  0
  4 26  1  0
  9 27  1  0
 10 28  1  0
 11 29  1  0
 12 30  1  0
 15 31  1  0
 15 32  1  0
 16 33  1  0
 16 34  1  0
 19 35  1  0
 19 36  1  0
 20 37  1  0
 20 38  1  0
 21 39  1  0
 21 40  1  0
 22 41  1  0
 22 42  1  0
 23 43  1  0
 23 44  1  0
M  END
>  <Energy>  (730) 
590.45670844127653

>  <compound_id>  (730) 
69654

>  <target_id>  (730) 
1

>  <reference_id>  (730) 
2

>  <inspiration_ids>  (730) 
[2, 46]

>  <energy_score>  (730) 
469.48994876355965

>  <distance_score>  (730) 
9.08288066417763

>  <path>  (730) 
/opt/xchem-fragalysis-2/maxwin/BulkDock/SCRATCH/511015/C69654-P2/C69654-P2.minimised.mol

>  <scratch_subdir>  (730) 
/opt/xchem-fragalysis-2/maxwin/BulkDock/SCRATCH/511015/C69654-P2

>  <fragmenstein_runtime>  (730) 
18.790406942367554

>  <fragmenstein_outcome>  (730) 
too moved

>  <fragmenstein_mode>  (730) 
expansion

>  <fragmenstein_error>  (730) 


$$$$
C69654-P46
     RDKit          3D

 44 47  0  0  0  0  0  0  0  0999 V2000
  -14.6043  -27.0660   26.5827 O   0  0  0  0  0  0  0  0  0  0  0  0
  -15.8029  -27.3274   26.5849 C   0  0  0  0  0  0  0  0  0  0  0  0
  -16.5415  -27.9043   27.8403 C   0  0  0  0  0  0  0  0  0  0  0  0
  -16.8875  -26.7506   28.8062 C   0  0  0  0  0  0  0  0  0  0  0  0
  -17.4908  -27.1623   30.0997 N   0  0  0  0  0  0  0  0  0  0  0  0
  -17.6397  -26.1251   30.9874 C   0  0  0  0  0  0  0  0  0  0  0  0
  -17.6959  -24.8191   30.7690 N   0  0  0  0  0  0  0  0  0  0  0  0
  -17.6380  -24.2695   32.0323 C   0  0  0  0  0  0  0  0  0  0  0  0
  -17.5439  -22.9366   32.4572 C   0  0  0  0  0  0  0  0  0  0  0  0
  -17.4130  -22.6872   33.8286 C   0  0  0  0  0  0  0  0  0  0  0  0
  -17.4068  -23.7361   34.7510 C   0  0  0  0  0  0  0  0  0  0  0  0
  -17.5437  -25.0679   34.3453 C   0  0  0  0  0  0  0  0  0  0  0  0
  -17.6406  -25.2721   32.9763 C   0  0  0  0  0  0  0  0  0  0  0  0
  -17.6883  -26.4614   32.3197 O   0  0  0  0  0  0  0  0  0  0  0  0
  -16.8725  -28.3674   30.6690 C   0  0  0  0  0  0  0  0  0  0  0  0
  -16.5155  -29.4177   29.6186 C   0  0  0  0  0  0  0  0  0  0  0  0
  -15.7434  -28.8724   28.5426 O   0  0  0  0  0  0  0  0  0  0  0  0
  -16.6662  -27.0544   25.5244 N   0  0  0  0  0  0  0  0  0  0  0  0
  -17.1302  -27.7503   24.3122 C   0  0  0  0  0  0  0  0  0  0  0  0
  -16.5971  -26.9461   22.8272 C   0  0  0  0  0  0  0  0  0  0  0  0
  -15.9448  -28.0507   22.0631 C   0  0  0  0  0  0  0  0  0  0  0  0
  -15.4399  -28.8149   23.2495 C   0  0  0  0  0  0  0  0  0  0  0  0
  -16.6743  -28.5462   24.4473 C   0  0  0  0  0  0  0  0  0  0  0  0
  -17.4595  -28.3983   27.4950 H   0  0  0  0  0  0  0  0  0  0  0  0
  -15.9450  -26.2581   29.0507 H   0  0  0  0  0  0  0  0  0  0  0  0
  -17.5906  -26.0795   28.3030 H   0  0  0  0  0  0  0  0  0  0  0  0
  -17.5338  -22.1181   31.7467 H   0  0  0  0  0  0  0  0  0  0  0  0
  -17.3103  -21.6624   34.1783 H   0  0  0  0  0  0  0  0  0  0  0  0
  -17.3042  -23.5125   35.8110 H   0  0  0  0  0  0  0  0  0  0  0  0
  -17.5351  -25.8918   35.0467 H   0  0  0  0  0  0  0  0  0  0  0  0
  -15.9485  -28.0882   31.1574 H   0  0  0  0  0  0  0  0  0  0  0  0
  -17.5332  -28.8239   31.4156 H   0  0  0  0  0  0  0  0  0  0  0  0
  -15.9197  -30.2111   30.0820 H   0  0  0  0  0  0  0  0  0  0  0  0
  -17.4196  -29.8887   29.2133 H   0  0  0  0  0  0  0  0  0  0  0  0
  -18.3506  -28.0579   24.2042 H   0  0  0  0  0  0  0  0  0  0  0  0
  -17.7983  -26.7930   24.3232 H   0  0  0  0  0  0  0  0  0  0  0  0
  -17.4521  -26.5093   22.3003 H   0  0  0  0  0  0  0  0  0  0  0  0
  -15.8833  -26.1777   23.1383 H   0  0  0  0  0  0  0  0  0  0  0  0
  -16.6969  -28.6379   21.5252 H   0  0  0  0  0  0  0  0  0  0  0  0
  -15.1892  -27.7271   21.3530 H   0  0  0  0  0  0  0  0  0  0  0  0
  -14.4933  -28.4269   23.6388 H   0  0  0  0  0  0  0  0  0  0  0  0
  -15.3593  -29.8884   23.0524 H   0  0  0  0  0  0  0  0  0  0  0  0
  -17.3741  -29.5115   24.6830 H   0  0  0  0  0  0  0  0  0  0  0  0
  -15.9706  -29.1053   25.1934 H   0  0  0  0  0  0  0  0  0  0  0  0
  1  2  2  0
  2  3  1  0
  3  4  1  0
  4  5  1  0
  5  6  1  0
  6  7  2  0
  7  8  1  0
  8  9  2  0
  9 10  1  0
 10 11  2  0
 11 12  1  0
 12 13  2  0
 13 14  1  0
  5 15  1  0
 15 16  1  0
 16 17  1  0
  2 18  1  0
 18 19  1  0
 19 20  1  0
 20 21  1  0
 21 22  1  0
 22 23  1  0
 17  3  1  0
 23 18  1  0
 14  6  1  0
 13  8  1  0
  3 24  1  0
  4 25  1  0
  4 26  1  0
  9 27  1  0
 10 28  1  0
 11 29  1  0
 12 30  1  0
 15 31  1  0
 15 32  1  0
 16 33  1  0
 16 34  1  0
 19 35  1  0
 19 36  1  0
 20 37  1  0
 20 38  1  0
 21 39  1  0
 21 40  1  0
 22 41  1  0
 22 42  1  0
 23 43  1  0
 23 44  1  0
M  END
>  <Energy>  (731) 
622.27863168764145

>  <compound_id>  (731) 
69654

>  <target_id>  (731) 
1

>  <reference_id>  (731) 
46

>  <inspiration_ids>  (731) 
[2, 46]

>  <energy_score>  (731) 
501.31187200992935

>  <distance_score>  (731) 
12.95482772593655

>  <path>  (731) 
/opt/xchem-fragalysis-2/maxwin/BulkDock/SCRATCH/511015/C69654-P46/C69654-P46.minimised.mol

>  <scratch_subdir>  (731) 
/opt/xchem-fragalysis-2/maxwin/BulkDock/SCRATCH/511015/C69654-P46

>  <fragmenstein_runtime>  (731) 
28.04691743850708

>  <fragmenstein_outcome>  (731) 
too moved

>  <fragmenstein_mode>  (731) 
expansion

>  <fragmenstein_error>  (731) 


$$$$
C69656-P2
     RDKit          3D

 46 49  0  0  0  0  0  0  0  0999 V2000
   -8.5403  -19.9995   19.8160 O   0  0  0  0  0  0  0  0  0  0  0  0
   -9.2427  -20.9382   19.4967 C   0  0  0  0  0  0  0  0  0  0  0  0
  -10.6145  -21.4006   20.7341 C   0  0  0  0  0  0  0  0  0  0  0  0
  -11.8203  -22.2808   20.9409 C   0  0  0  0  0  0  0  0  0  0  0  0
  -12.5417  -22.3185   22.3429 C   0  0  0  0  0  0  0  0  0  0  0  0
  -12.3173  -21.6888   23.5802 N   0  0  0  0  0  0  0  0  0  0  0  0
  -12.6762  -22.5773   24.6185 C   0  0  0  0  0  0  0  0  0  0  0  0
  -13.7324  -23.3991   24.6341 N   0  0  0  0  0  0  0  0  0  0  0  0
  -13.4614  -24.3187   25.6338 C   0  0  0  0  0  0  0  0  0  0  0  0
  -14.0977  -25.5084   26.0199 C   0  0  0  0  0  0  0  0  0  0  0  0
  -13.5176  -26.2697   27.0542 C   0  0  0  0  0  0  0  0  0  0  0  0
  -12.3249  -25.8667   27.6708 C   0  0  0  0  0  0  0  0  0  0  0  0
  -11.6734  -24.6916   27.2845 C   0  0  0  0  0  0  0  0  0  0  0  0
  -12.2864  -23.9788   26.2608 C   0  0  0  0  0  0  0  0  0  0  0  0
  -11.8260  -22.8663   25.6530 O   0  0  0  0  0  0  0  0  0  0  0  0
  -11.1100  -20.9692   23.2948 C   0  0  0  0  0  0  0  0  0  0  0  0
  -10.0698  -21.5431   22.3040 C   0  0  0  0  0  0  0  0  0  0  0  0
   -8.7548  -21.4846   18.3795 N   0  0  0  0  0  0  0  0  0  0  0  0
   -9.5611  -20.7082   16.8776 C   0  0  0  0  0  0  0  0  0  0  0  0
  -10.0986  -21.4044   15.0216 C   0  0  0  0  0  0  0  0  0  0  0  0
   -9.4316  -22.4837   14.2631 C   0  0  0  0  0  0  0  0  0  0  0  0
   -8.9062  -22.6921   15.5780 C   0  0  0  0  0  0  0  0  0  0  0  0
   -8.9255  -21.2894   17.1379 C   0  0  0  0  0  0  0  0  0  0  0  0
  -11.2245  -20.5185   20.6792 H   0  0  0  0  0  0  0  0  0  0  0  0
  -11.5056  -23.2739   20.8203 H   0  0  0  0  0  0  0  0  0  0  0  0
  -12.5069  -22.3786   20.1087 H   0  0  0  0  0  0  0  0  0  0  0  0
  -11.8320  -23.0310   22.7201 H   0  0  0  0  0  0  0  0  0  0  0  0
  -13.5495  -22.7244   22.3214 H   0  0  0  0  0  0  0  0  0  0  0  0
  -15.0096  -25.8263   25.5261 H   0  0  0  0  0  0  0  0  0  0  0  0
  -13.9973  -27.1977   27.3608 H   0  0  0  0  0  0  0  0  0  0  0  0
  -11.8929  -26.4738   28.4646 H   0  0  0  0  0  0  0  0  0  0  0  0
  -10.7531  -24.3527   27.7417 H   0  0  0  0  0  0  0  0  0  0  0  0
  -10.7528  -20.4273   24.1201 H   0  0  0  0  0  0  0  0  0  0  0  0
  -11.4990  -20.2390   22.6454 H   0  0  0  0  0  0  0  0  0  0  0  0
   -9.1055  -21.0753   22.3668 H   0  0  0  0  0  0  0  0  0  0  0  0
   -9.7975  -22.5148   22.6794 H   0  0  0  0  0  0  0  0  0  0  0  0
   -9.7081  -19.5958   17.1879 H   0  0  0  0  0  0  0  0  0  0  0  0
  -10.2757  -21.6664   16.4517 H   0  0  0  0  0  0  0  0  0  0  0  0
  -10.7879  -20.8499   14.3843 H   0  0  0  0  0  0  0  0  0  0  0  0
  -10.8131  -22.1930   15.0742 H   0  0  0  0  0  0  0  0  0  0  0  0
   -8.6675  -22.4783   13.4911 H   0  0  0  0  0  0  0  0  0  0  0  0
  -10.0861  -23.3018   13.9037 H   0  0  0  0  0  0  0  0  0  0  0  0
   -9.5140  -23.5360   15.8243 H   0  0  0  0  0  0  0  0  0  0  0  0
   -7.9316  -23.0793   15.4081 H   0  0  0  0  0  0  0  0  0  0  0  0
   -7.6369  -21.3659   17.1075 H   0  0  0  0  0  0  0  0  0  0  0  0
   -8.0601  -20.2498   17.4210 H   0  0  0  0  0  0  0  0  0  0  0  0
  1  2  2  0
  2  3  1  0
  3  4  1  0
  4  5  1  0
  5  6  1  0
  6  7  1  0
  7  8  2  0
  8  9  1  0
  9 10  2  0
 10 11  1  0
 11 12  2  0
 12 13  1  0
 13 14  2  0
 14 15  1  0
  6 16  1  0
 16 17  1  0
  2 18  1  0
 18 19  1  0
 19 20  1  0
 20 21  1  0
 21 22  1  0
 22 23  1  0
 17  3  1  0
 23 18  1  0
 15  7  1  0
 14  9  1  0
  3 24  1  0
  4 25  1  0
  4 26  1  0
  5 27  1  0
  5 28  1  0
 10 29  1  0
 11 30  1  0
 12 31  1  0
 13 32  1  0
 16 33  1  0
 16 34  1  0
 17 35  1  0
 17 36  1  0
 19 37  1  0
 19 38  1  0
 20 39  1  0
 20 40  1  0
 21 41  1  0
 21 42  1  0
 22 43  1  0
 22 44  1  0
 23 45  1  0
 23 46  1  0
M  END
>  <Energy>  (732) 
1137.1745583746522

>  <compound_id>  (732) 
69656

>  <target_id>  (732) 
1

>  <reference_id>  (732) 
2

>  <inspiration_ids>  (732) 
[2, 46]

>  <energy_score>  (732) 
1104.869489085825

>  <distance_score>  (732) 
8.614142119575986

>  <path>  (732) 
/opt/xchem-fragalysis-2/maxwin/BulkDock/SCRATCH/511015/C69656-P2/C69656-P2.minimised.mol

>  <scratch_subdir>  (732) 
/opt/xchem-fragalysis-2/maxwin/BulkDock/SCRATCH/511015/C69656-P2

>  <fragmenstein_runtime>  (732) 
19.71405577659607

>  <fragmenstein_outcome>  (732) 
too moved

>  <fragmenstein_mode>  (732) 
expansion

>  <fragmenstein_error>  (732) 


$$$$
C69656-P46
     RDKit          3D

 46 49  0  0  0  0  0  0  0  0999 V2000
   -8.2373  -20.0246   20.0607 O   0  0  0  0  0  0  0  0  0  0  0  0
   -9.1593  -20.7299   19.5852 C   0  0  0  0  0  0  0  0  0  0  0  0
  -10.7459  -21.1040   20.6243 C   0  0  0  0  0  0  0  0  0  0  0  0
  -10.1202  -21.3253   22.1099 C   0  0  0  0  0  0  0  0  0  0  0  0
  -10.2432  -22.5053   23.0182 C   0  0  0  0  0  0  0  0  0  0  0  0
  -11.5909  -22.6869   23.4410 N   0  0  0  0  0  0  0  0  0  0  0  0
  -11.9834  -23.3209   24.5900 C   0  0  0  0  0  0  0  0  0  0  0  0
  -11.2263  -23.8837   25.5187 N   0  0  0  0  0  0  0  0  0  0  0  0
  -12.0602  -24.6874   26.2342 C   0  0  0  0  0  0  0  0  0  0  0  0
  -11.7967  -25.5902   27.2715 C   0  0  0  0  0  0  0  0  0  0  0  0
  -12.8128  -26.4731   27.6412 C   0  0  0  0  0  0  0  0  0  0  0  0
  -14.0703  -26.4087   27.0364 C   0  0  0  0  0  0  0  0  0  0  0  0
  -14.3613  -25.4631   26.0441 C   0  0  0  0  0  0  0  0  0  0  0  0
  -13.3241  -24.6186   25.6921 C   0  0  0  0  0  0  0  0  0  0  0  0
  -13.3163  -23.6586   24.7173 O   0  0  0  0  0  0  0  0  0  0  0  0
  -12.4676  -22.1573   22.4349 C   0  0  0  0  0  0  0  0  0  0  0  0
  -11.8250  -22.1733   20.8978 C   0  0  0  0  0  0  0  0  0  0  0  0
   -8.9373  -21.3747   18.3090 N   0  0  0  0  0  0  0  0  0  0  0  0
   -9.4342  -20.2866   17.0454 C   0  0  0  0  0  0  0  0  0  0  0  0
   -9.9358  -20.4533   15.0620 C   0  0  0  0  0  0  0  0  0  0  0  0
   -9.7384  -21.7635   14.2380 C   0  0  0  0  0  0  0  0  0  0  0  0
   -8.9076  -22.2961   15.2968 C   0  0  0  0  0  0  0  0  0  0  0  0
   -9.1573  -21.0623   16.8950 C   0  0  0  0  0  0  0  0  0  0  0  0
  -11.4279  -20.2892   20.6771 H   0  0  0  0  0  0  0  0  0  0  0  0
   -9.0615  -21.1030   22.1234 H   0  0  0  0  0  0  0  0  0  0  0  0
  -10.5990  -20.5528   22.7320 H   0  0  0  0  0  0  0  0  0  0  0  0
   -9.6675  -22.0507   23.7236 H   0  0  0  0  0  0  0  0  0  0  0  0
   -9.5517  -23.3494   23.0424 H   0  0  0  0  0  0  0  0  0  0  0  0
  -10.8104  -25.6578   27.7139 H   0  0  0  0  0  0  0  0  0  0  0  0
  -12.6058  -27.2383   28.3860 H   0  0  0  0  0  0  0  0  0  0  0  0
  -14.8546  -27.0993   27.3447 H   0  0  0  0  0  0  0  0  0  0  0  0
  -15.3374  -25.3996   25.5802 H   0  0  0  0  0  0  0  0  0  0  0  0
  -13.4287  -22.6607   22.4891 H   0  0  0  0  0  0  0  0  0  0  0  0
  -12.5874  -21.1394   22.7457 H   0  0  0  0  0  0  0  0  0  0  0  0
  -11.5102  -23.1452   20.6603 H   0  0  0  0  0  0  0  0  0  0  0  0
  -12.5864  -22.1384   20.1383 H   0  0  0  0  0  0  0  0  0  0  0  0
   -8.3102  -19.6942   17.4634 H   0  0  0  0  0  0  0  0  0  0  0  0
   -9.7255  -19.2540   17.4391 H   0  0  0  0  0  0  0  0  0  0  0  0
  -10.1270  -19.3484   15.1326 H   0  0  0  0  0  0  0  0  0  0  0  0
  -10.5207  -20.0467   14.1822 H   0  0  0  0  0  0  0  0  0  0  0  0
  -10.5794  -22.4100   14.0098 H   0  0  0  0  0  0  0  0  0  0  0  0
   -9.2003  -21.8325   13.2828 H   0  0  0  0  0  0  0  0  0  0  0  0
   -9.2593  -23.3173   15.4229 H   0  0  0  0  0  0  0  0  0  0  0  0
   -7.8923  -22.3239   14.9490 H   0  0  0  0  0  0  0  0  0  0  0  0
   -9.9580  -21.7462   16.2960 H   0  0  0  0  0  0  0  0  0  0  0  0
   -9.6377  -21.9960   17.2833 H   0  0  0  0  0  0  0  0  0  0  0  0
  1  2  2  0
  2  3  1  0
  3  4  1  0
  4  5  1  0
  5  6  1  0
  6  7  1  0
  7  8  2  0
  8  9  1  0
  9 10  2  0
 10 11  1  0
 11 12  2  0
 12 13  1  0
 13 14  2  0
 14 15  1  0
  6 16  1  0
 16 17  1  0
  2 18  1  0
 18 19  1  0
 19 20  1  0
 20 21  1  0
 21 22  1  0
 22 23  1  0
 17  3  1  0
 23 18  1  0
 15  7  1  0
 14  9  1  0
  3 24  1  0
  4 25  1  0
  4 26  1  0
  5 27  1  0
  5 28  1  0
 10 29  1  0
 11 30  1  0
 12 31  1  0
 13 32  1  0
 16 33  1  0
 16 34  1  0
 17 35  1  0
 17 36  1  0
 19 37  1  0
 19 38  1  0
 20 39  1  0
 20 40  1  0
 21 41  1  0
 21 42  1  0
 22 43  1  0
 22 44  1  0
 23 45  1  0
 23 46  1  0
M  END
>  <Energy>  (733) 
1023.1268610584945

>  <compound_id>  (733) 
69656

>  <target_id>  (733) 
1

>  <reference_id>  (733) 
46

>  <inspiration_ids>  (733) 
[2, 46]

>  <energy_score>  (733) 
990.8217917696768

>  <distance_score>  (733) 
8.764930635954114

>  <path>  (733) 
/opt/xchem-fragalysis-2/maxwin/BulkDock/SCRATCH/511015/C69656-P46/C69656-P46.minimised.mol

>  <scratch_subdir>  (733) 
/opt/xchem-fragalysis-2/maxwin/BulkDock/SCRATCH/511015/C69656-P46

>  <fragmenstein_runtime>  (733) 
29.196051836013794

>  <fragmenstein_outcome>  (733) 
too moved

>  <fragmenstein_mode>  (733) 
expansion

>  <fragmenstein_error>  (733) 


$$$$
C69657-P2
     RDKit          3D

 45 48  0  0  0  0  0  0  0  0999 V2000
   -9.4532  -22.6213   20.6910 O   0  0  0  0  0  0  0  0  0  0  0  0
  -10.0806  -21.7758   20.2739 C   0  0  0  0  0  0  0  0  0  0  0  0
   -9.1330  -20.8689   19.0326 N   0  0  0  0  0  0  0  0  0  0  0  0
   -9.4409  -21.5990   17.4060 C   0  0  0  0  0  0  0  0  0  0  0  0
  -10.1671  -21.4329   15.5393 C   0  0  0  0  0  0  0  0  0  0  0  0
   -9.9408  -22.5451   14.6498 C   0  0  0  0  0  0  0  0  0  0  0  0
   -8.9052  -22.4973   15.6177 C   0  0  0  0  0  0  0  0  0  0  0  0
   -8.9110  -21.0310   17.2645 C   0  0  0  0  0  0  0  0  0  0  0  0
  -11.3973  -21.6113   20.6086 N   0  0  0  0  0  0  0  0  0  0  0  0
  -11.5207  -20.7949   21.7415 C   0  0  0  0  0  0  0  0  0  0  0  0
  -10.9050  -21.4621   23.1873 C   0  0  0  0  0  0  0  0  0  0  0  0
  -11.7787  -22.5935   23.7634 N   0  0  0  0  0  0  0  0  0  0  0  0
  -11.8650  -23.1429   25.0491 C   0  0  0  0  0  0  0  0  0  0  0  0
  -11.9364  -22.5799   26.2429 N   0  0  0  0  0  0  0  0  0  0  0  0
  -11.6071  -23.5288   27.1688 C   0  0  0  0  0  0  0  0  0  0  0  0
  -11.4159  -23.4582   28.5565 C   0  0  0  0  0  0  0  0  0  0  0  0
  -11.0772  -24.6288   29.2474 C   0  0  0  0  0  0  0  0  0  0  0  0
  -10.8742  -25.8242   28.5566 C   0  0  0  0  0  0  0  0  0  0  0  0
  -11.0181  -25.8925   27.1646 C   0  0  0  0  0  0  0  0  0  0  0  0
  -11.3897  -24.7181   26.5212 C   0  0  0  0  0  0  0  0  0  0  0  0
  -11.5303  -24.4879   25.1816 O   0  0  0  0  0  0  0  0  0  0  0  0
  -12.9527  -22.4588   23.0019 C   0  0  0  0  0  0  0  0  0  0  0  0
  -12.3080  -22.4025   21.3830 C   0  0  0  0  0  0  0  0  0  0  0  0
   -9.8692  -22.2388   18.2512 H   0  0  0  0  0  0  0  0  0  0  0  0
   -9.9090  -22.5841   17.0934 H   0  0  0  0  0  0  0  0  0  0  0  0
  -10.0977  -20.3628   15.5020 H   0  0  0  0  0  0  0  0  0  0  0  0
  -10.8309  -21.1241   14.7346 H   0  0  0  0  0  0  0  0  0  0  0  0
   -9.6543  -22.3894   13.6101 H   0  0  0  0  0  0  0  0  0  0  0  0
  -10.5686  -23.4349   14.6976 H   0  0  0  0  0  0  0  0  0  0  0  0
   -8.8841  -23.5936   15.7743 H   0  0  0  0  0  0  0  0  0  0  0  0
   -8.0372  -22.4215   14.9599 H   0  0  0  0  0  0  0  0  0  0  0  0
   -9.2398  -19.8805   17.2434 H   0  0  0  0  0  0  0  0  0  0  0  0
   -7.7316  -20.8864   17.4322 H   0  0  0  0  0  0  0  0  0  0  0  0
  -12.4208  -20.5733   22.1762 H   0  0  0  0  0  0  0  0  0  0  0  0
  -11.1632  -19.8948   21.5239 H   0  0  0  0  0  0  0  0  0  0  0  0
  -10.9448  -20.6165   23.8622 H   0  0  0  0  0  0  0  0  0  0  0  0
   -9.9088  -21.8508   22.9870 H   0  0  0  0  0  0  0  0  0  0  0  0
  -11.5730  -22.5184   29.0737 H   0  0  0  0  0  0  0  0  0  0  0  0
  -10.9597  -24.5989   30.3295 H   0  0  0  0  0  0  0  0  0  0  0  0
  -10.5735  -26.7128   29.1096 H   0  0  0  0  0  0  0  0  0  0  0  0
  -10.7895  -26.7949   26.6195 H   0  0  0  0  0  0  0  0  0  0  0  0
  -13.5034  -21.6071   23.3728 H   0  0  0  0  0  0  0  0  0  0  0  0
  -13.7083  -23.2453   23.1345 H   0  0  0  0  0  0  0  0  0  0  0  0
  -13.0764  -22.7740   20.7025 H   0  0  0  0  0  0  0  0  0  0  0  0
  -11.6555  -23.2025   21.2078 H   0  0  0  0  0  0  0  0  0  0  0  0
  1  2  2  0
  2  3  1  0
  3  4  1  0
  4  5  1  0
  5  6  1  0
  6  7  1  0
  7  8  1  0
  2  9  1  0
  9 10  1  0
 10 11  1  0
 11 12  1  0
 12 13  1  0
 13 14  2  0
 14 15  1  0
 15 16  2  0
 16 17  1  0
 17 18  2  0
 18 19  1  0
 19 20  2  0
 20 21  1  0
 12 22  1  0
 22 23  1  0
  8  3  1  0
 23  9  1  0
 21 13  1  0
 20 15  1  0
  4 24  1  0
  4 25  1  0
  5 26  1  0
  5 27  1  0
  6 28  1  0
  6 29  1  0
  7 30  1  0
  7 31  1  0
  8 32  1  0
  8 33  1  0
 10 34  1  0
 10 35  1  0
 11 36  1  0
 11 37  1  0
 16 38  1  0
 17 39  1  0
 18 40  1  0
 19 41  1  0
 22 42  1  0
 22 43  1  0
 23 44  1  0
 23 45  1  0
M  END
>  <Energy>  (734) 
1271.5972491251541

>  <compound_id>  (734) 
69657

>  <target_id>  (734) 
1

>  <reference_id>  (734) 
2

>  <inspiration_ids>  (734) 
[2, 46]

>  <energy_score>  (734) 
1259.5361489181228

>  <distance_score>  (734) 
8.731030540784822

>  <path>  (734) 
/opt/xchem-fragalysis-2/maxwin/BulkDock/SCRATCH/511015/C69657-P2/C69657-P2.minimised.mol

>  <scratch_subdir>  (734) 
/opt/xchem-fragalysis-2/maxwin/BulkDock/SCRATCH/511015/C69657-P2

>  <fragmenstein_runtime>  (734) 
21.820330142974854

>  <fragmenstein_outcome>  (734) 
too moved

>  <fragmenstein_mode>  (734) 
expansion

>  <fragmenstein_error>  (734) 


$$$$
C69657-P46
     RDKit          3D

 45 48  0  0  0  0  0  0  0  0999 V2000
  -10.0588  -22.5527   22.4186 O   0  0  0  0  0  0  0  0  0  0  0  0
  -11.2255  -22.8001   22.1792 C   0  0  0  0  0  0  0  0  0  0  0  0
  -11.5686  -23.1414   20.3776 N   0  0  0  0  0  0  0  0  0  0  0  0
  -11.8744  -21.9781   19.6076 C   0  0  0  0  0  0  0  0  0  0  0  0
  -10.0707  -22.2707   18.4726 C   0  0  0  0  0  0  0  0  0  0  0  0
  -10.1106  -23.1523   16.4186 C   0  0  0  0  0  0  0  0  0  0  0  0
  -11.1715  -25.1122   16.9448 C   0  0  0  0  0  0  0  0  0  0  0  0
  -11.5654  -24.9342   19.2183 C   0  0  0  0  0  0  0  0  0  0  0  0
  -12.2951  -22.9890   23.1490 N   0  0  0  0  0  0  0  0  0  0  0  0
  -12.9927  -21.8343   23.4903 C   0  0  0  0  0  0  0  0  0  0  0  0
  -14.5058  -22.5222   23.9373 C   0  0  0  0  0  0  0  0  0  0  0  0
  -14.4426  -23.7080   24.8112 N   0  0  0  0  0  0  0  0  0  0  0  0
  -15.4052  -24.6209   25.0008 C   0  0  0  0  0  0  0  0  0  0  0  0
  -15.2391  -25.8403   25.4743 N   0  0  0  0  0  0  0  0  0  0  0  0
  -16.4898  -26.1928   25.8861 C   0  0  0  0  0  0  0  0  0  0  0  0
  -16.9305  -27.2903   26.6355 C   0  0  0  0  0  0  0  0  0  0  0  0
  -18.2705  -27.3054   27.0412 C   0  0  0  0  0  0  0  0  0  0  0  0
  -19.1460  -26.2743   26.6734 C   0  0  0  0  0  0  0  0  0  0  0  0
  -18.7275  -25.1898   25.8925 C   0  0  0  0  0  0  0  0  0  0  0  0
  -17.3879  -25.1948   25.5405 C   0  0  0  0  0  0  0  0  0  0  0  0
  -16.6987  -24.2028   24.9025 O   0  0  0  0  0  0  0  0  0  0  0  0
  -13.1834  -23.9984   25.3888 C   0  0  0  0  0  0  0  0  0  0  0  0
  -12.2649  -23.0546   24.6850 C   0  0  0  0  0  0  0  0  0  0  0  0
  -11.6436  -21.1136   20.2355 H   0  0  0  0  0  0  0  0  0  0  0  0
  -12.7637  -22.0939   18.9933 H   0  0  0  0  0  0  0  0  0  0  0  0
   -9.3002  -21.3405   18.3633 H   0  0  0  0  0  0  0  0  0  0  0  0
   -9.8640  -22.4574   19.5450 H   0  0  0  0  0  0  0  0  0  0  0  0
   -9.1831  -23.4573   15.7674 H   0  0  0  0  0  0  0  0  0  0  0  0
  -10.1606  -22.4456   15.5330 H   0  0  0  0  0  0  0  0  0  0  0  0
  -10.6462  -26.0484   16.5846 H   0  0  0  0  0  0  0  0  0  0  0  0
  -12.1406  -25.2053   16.3622 H   0  0  0  0  0  0  0  0  0  0  0  0
  -12.6840  -25.0516   19.2313 H   0  0  0  0  0  0  0  0  0  0  0  0
  -11.3292  -25.8188   19.8354 H   0  0  0  0  0  0  0  0  0  0  0  0
  -13.0243  -21.4171   22.5207 H   0  0  0  0  0  0  0  0  0  0  0  0
  -12.5456  -21.0198   24.0819 H   0  0  0  0  0  0  0  0  0  0  0  0
  -15.2127  -21.7565   24.2689 H   0  0  0  0  0  0  0  0  0  0  0  0
  -14.8695  -23.0393   23.0517 H   0  0  0  0  0  0  0  0  0  0  0  0
  -16.2376  -28.0681   26.9328 H   0  0  0  0  0  0  0  0  0  0  0  0
  -18.6342  -28.1293   27.6510 H   0  0  0  0  0  0  0  0  0  0  0  0
  -20.1820  -26.3168   27.0060 H   0  0  0  0  0  0  0  0  0  0  0  0
  -19.3889  -24.3774   25.6226 H   0  0  0  0  0  0  0  0  0  0  0  0
  -12.8716  -25.0401   25.2446 H   0  0  0  0  0  0  0  0  0  0  0  0
  -13.1633  -23.8267   26.4718 H   0  0  0  0  0  0  0  0  0  0  0  0
  -12.0175  -22.2020   25.3141 H   0  0  0  0  0  0  0  0  0  0  0  0
  -11.3084  -23.5975   24.7954 H   0  0  0  0  0  0  0  0  0  0  0  0
  1  2  2  0
  2  3  1  0
  3  4  1  0
  4  5  1  0
  5  6  1  0
  6  7  1  0
  7  8  1  0
  2  9  1  0
  9 10  1  0
 10 11  1  0
 11 12  1  0
 12 13  1  0
 13 14  2  0
 14 15  1  0
 15 16  2  0
 16 17  1  0
 17 18  2  0
 18 19  1  0
 19 20  2  0
 20 21  1  0
 12 22  1  0
 22 23  1  0
  8  3  1  0
 23  9  1  0
 21 13  1  0
 20 15  1  0
  4 24  1  0
  4 25  1  0
  5 26  1  0
  5 27  1  0
  6 28  1  0
  6 29  1  0
  7 30  1  0
  7 31  1  0
  8 32  1  0
  8 33  1  0
 10 34  1  0
 10 35  1  0
 11 36  1  0
 11 37  1  0
 16 38  1  0
 17 39  1  0
 18 40  1  0
 19 41  1  0
 22 42  1  0
 22 43  1  0
 23 44  1  0
 23 45  1  0
M  END
>  <Energy>  (735) 
997.56399236306265

>  <compound_id>  (735) 
69657

>  <target_id>  (735) 
1

>  <reference_id>  (735) 
46

>  <inspiration_ids>  (735) 
[2, 46]

>  <energy_score>  (735) 
985.5028921560397

>  <distance_score>  (735) 
9.618100884995677

>  <path>  (735) 
/opt/xchem-fragalysis-2/maxwin/BulkDock/SCRATCH/511015/C69657-P46/C69657-P46.minimised.mol

>  <scratch_subdir>  (735) 
/opt/xchem-fragalysis-2/maxwin/BulkDock/SCRATCH/511015/C69657-P46

>  <fragmenstein_runtime>  (735) 
18.995224952697754

>  <fragmenstein_outcome>  (735) 
too moved

>  <fragmenstein_mode>  (735) 
expansion

>  <fragmenstein_error>  (735) 


$$$$
C69663-P2
     RDKit          3D

 46 48  0  0  0  0  0  0  0  0999 V2000
  -14.1383  -24.8980   21.8435 O   0  0  0  0  0  0  0  0  0  0  0  0
  -15.2144  -24.8373   21.3193 C   0  0  0  0  0  0  0  0  0  0  0  0
  -16.4606  -24.8644   22.2303 C   0  0  0  0  0  0  0  0  0  0  0  0
  -16.2471  -23.8900   23.7573 S   0  0  0  0  0  0  0  0  0  0  0  0
  -15.0355  -24.7789   24.6340 C   0  0  0  0  0  0  0  0  0  0  0  0
  -13.8878  -24.2400   24.9979 N   0  0  0  0  0  0  0  0  0  0  0  0
  -13.3837  -25.1092   25.9194 C   0  0  0  0  0  0  0  0  0  0  0  0
  -12.2699  -24.9982   26.7576 C   0  0  0  0  0  0  0  0  0  0  0  0
  -12.1541  -25.9448   27.7837 C   0  0  0  0  0  0  0  0  0  0  0  0
  -10.8998  -25.7390   29.0364 S   0  0  0  0  0  0  0  0  0  0  0  0
  -10.9361  -26.9492   29.8299 O   0  0  0  0  0  0  0  0  0  0  0  0
   -9.6916  -25.3127   28.3675 O   0  0  0  0  0  0  0  0  0  0  0  0
  -11.4556  -24.4581   30.0312 N   0  0  0  0  0  0  0  0  0  0  0  0
  -10.8112  -24.5227   31.3837 C   0  0  0  0  0  0  0  0  0  0  0  0
  -11.2577  -23.4371   32.3456 C   0  0  0  0  0  0  0  0  0  0  0  0
  -11.4092  -22.0472   31.7610 C   0  0  0  0  0  0  0  0  0  0  0  0
  -11.8729  -22.0150   30.3158 C   0  0  0  0  0  0  0  0  0  0  0  0
  -11.4013  -23.1238   29.3941 C   0  0  0  0  0  0  0  0  0  0  0  0
  -12.9946  -27.0760   27.8343 C   0  0  0  0  0  0  0  0  0  0  0  0
  -14.0417  -27.2518   26.9194 C   0  0  0  0  0  0  0  0  0  0  0  0
  -14.2176  -26.2105   26.0190 C   0  0  0  0  0  0  0  0  0  0  0  0
  -15.2554  -26.0332   25.1493 O   0  0  0  0  0  0  0  0  0  0  0  0
  -15.5827  -24.8341   19.9203 N   0  0  0  0  0  0  0  0  0  0  0  0
  -14.7531  -24.8061   18.7047 C   0  0  0  0  0  0  0  0  0  0  0  0
  -15.4211  -24.9239   17.3203 C   0  0  0  0  0  0  0  0  0  0  0  0
  -15.6493  -26.2331   17.0389 F   0  0  0  0  0  0  0  0  0  0  0  0
  -14.6535  -24.4276   16.3241 F   0  0  0  0  0  0  0  0  0  0  0  0
  -16.6234  -24.3100   17.2913 F   0  0  0  0  0  0  0  0  0  0  0  0
  -17.3256  -24.4463   21.7077 H   0  0  0  0  0  0  0  0  0  0  0  0
  -16.6839  -25.9072   22.4777 H   0  0  0  0  0  0  0  0  0  0  0  0
  -11.6117  -24.1414   26.6732 H   0  0  0  0  0  0  0  0  0  0  0  0
   -9.7228  -24.5079   31.2765 H   0  0  0  0  0  0  0  0  0  0  0  0
  -11.0555  -25.4840   31.8512 H   0  0  0  0  0  0  0  0  0  0  0  0
  -12.1922  -23.7285   32.8241 H   0  0  0  0  0  0  0  0  0  0  0  0
  -10.5391  -23.4029   33.1680 H   0  0  0  0  0  0  0  0  0  0  0  0
  -10.4714  -21.4994   31.8476 H   0  0  0  0  0  0  0  0  0  0  0  0
  -12.1082  -21.4746   32.3831 H   0  0  0  0  0  0  0  0  0  0  0  0
  -11.5736  -21.0757   29.8535 H   0  0  0  0  0  0  0  0  0  0  0  0
  -12.9595  -21.9888   30.3197 H   0  0  0  0  0  0  0  0  0  0  0  0
  -12.0189  -23.0879   28.5065 H   0  0  0  0  0  0  0  0  0  0  0  0
  -10.4292  -22.9218   28.9462 H   0  0  0  0  0  0  0  0  0  0  0  0
  -12.8478  -27.8307   28.6077 H   0  0  0  0  0  0  0  0  0  0  0  0
  -14.7180  -28.0971   26.9639 H   0  0  0  0  0  0  0  0  0  0  0  0
  -16.5856  -24.6862   19.8412 H   0  0  0  0  0  0  0  0  0  0  0  0
  -14.0385  -25.6255   18.8041 H   0  0  0  0  0  0  0  0  0  0  0  0
  -14.1661  -23.8906   18.7763 H   0  0  0  0  0  0  0  0  0  0  0  0
  1  2  2  0
  2  3  1  0
  3  4  1  0
  4  5  1  0
  5  6  2  0
  6  7  1  0
  7  8  2  0
  8  9  1  0
  9 10  1  0
 10 11  2  0
 10 12  2  0
 10 13  1  0
 13 14  1  0
 14 15  1  0
 15 16  1  0
 16 17  1  0
 17 18  1  0
  9 19  2  0
 19 20  1  0
 20 21  2  0
 21 22  1  0
  2 23  1  0
 23 24  1  0
 24 25  1  0
 25 26  1  0
 25 27  1  0
 25 28  1  0
 22  5  1  0
 21  7  1  0
 18 13  1  0
  3 29  1  0
  3 30  1  0
  8 31  1  0
 14 32  1  0
 14 33  1  0
 15 34  1  0
 15 35  1  0
 16 36  1  0
 16 37  1  0
 17 38  1  0
 17 39  1  0
 18 40  1  0
 18 41  1  0
 19 42  1  0
 20 43  1  0
 23 44  1  0
 24 45  1  0
 24 46  1  0
M  END
>  <Energy>  (736) 
22.097216783227047

>  <compound_id>  (736) 
69663

>  <target_id>  (736) 
1

>  <reference_id>  (736) 
2

>  <inspiration_ids>  (736) 
[2, 46]

>  <energy_score>  (736) 
-21.160963301026356

>  <distance_score>  (736) 
8.776882569617213

>  <path>  (736) 
/opt/xchem-fragalysis-2/maxwin/BulkDock/SCRATCH/511015/C69663-P2/C69663-P2.minimised.mol

>  <scratch_subdir>  (736) 
/opt/xchem-fragalysis-2/maxwin/BulkDock/SCRATCH/511015/C69663-P2

>  <fragmenstein_runtime>  (736) 
30.13550639152527

>  <fragmenstein_outcome>  (736) 
too moved

>  <fragmenstein_mode>  (736) 
expansion

>  <fragmenstein_error>  (736) 


$$$$
C69663-P46
     RDKit          3D

 46 48  0  0  0  0  0  0  0  0999 V2000
   -9.9580  -18.6732   19.8892 O   0  0  0  0  0  0  0  0  0  0  0  0
   -9.7297  -19.8405   20.0467 C   0  0  0  0  0  0  0  0  0  0  0  0
   -9.9875  -20.5744   21.4413 C   0  0  0  0  0  0  0  0  0  0  0  0
  -11.6402  -20.4890   22.1910 S   0  0  0  0  0  0  0  0  0  0  0  0
  -11.7253  -21.7401   23.4199 C   0  0  0  0  0  0  0  0  0  0  0  0
  -12.1555  -21.4595   24.6127 N   0  0  0  0  0  0  0  0  0  0  0  0
  -12.0382  -22.6433   25.4054 C   0  0  0  0  0  0  0  0  0  0  0  0
  -11.9915  -22.8637   26.8040 C   0  0  0  0  0  0  0  0  0  0  0  0
  -11.8014  -24.1447   27.2737 C   0  0  0  0  0  0  0  0  0  0  0  0
  -12.2411  -24.5147   28.8979 S   0  0  0  0  0  0  0  0  0  0  0  0
  -12.0094  -25.9380   29.0328 O   0  0  0  0  0  0  0  0  0  0  0  0
  -13.5769  -23.9802   29.0090 O   0  0  0  0  0  0  0  0  0  0  0  0
  -11.2648  -23.7152   30.0204 N   0  0  0  0  0  0  0  0  0  0  0  0
  -11.7081  -22.3289   30.3610 C   0  0  0  0  0  0  0  0  0  0  0  0
  -12.0840  -22.1583   31.8095 C   0  0  0  0  0  0  0  0  0  0  0  0
  -11.0026  -22.6369   32.7194 C   0  0  0  0  0  0  0  0  0  0  0  0
  -10.4264  -23.9956   32.4290 C   0  0  0  0  0  0  0  0  0  0  0  0
  -10.9574  -24.6318   31.1753 C   0  0  0  0  0  0  0  0  0  0  0  0
  -11.6104  -25.2004   26.4068 C   0  0  0  0  0  0  0  0  0  0  0  0
  -11.4317  -24.9455   25.0620 C   0  0  0  0  0  0  0  0  0  0  0  0
  -11.5866  -23.6353   24.6043 C   0  0  0  0  0  0  0  0  0  0  0  0
  -11.3158  -23.0440   23.3694 O   0  0  0  0  0  0  0  0  0  0  0  0
   -9.2390  -20.8628   19.0953 N   0  0  0  0  0  0  0  0  0  0  0  0
   -8.9369  -20.7801   17.4387 C   0  0  0  0  0  0  0  0  0  0  0  0
   -9.4242  -21.8216   15.7591 C   0  0  0  0  0  0  0  0  0  0  0  0
   -9.9970  -21.0301   14.8205 F   0  0  0  0  0  0  0  0  0  0  0  0
   -9.9627  -23.0290   15.6538 F   0  0  0  0  0  0  0  0  0  0  0  0
   -8.2808  -22.2293   14.9912 F   0  0  0  0  0  0  0  0  0  0  0  0
   -9.2495  -20.1549   22.1225 H   0  0  0  0  0  0  0  0  0  0  0  0
   -9.8209  -21.6374   21.3352 H   0  0  0  0  0  0  0  0  0  0  0  0
  -12.1102  -22.0441   27.4979 H   0  0  0  0  0  0  0  0  0  0  0  0
  -12.5495  -22.0001   29.7480 H   0  0  0  0  0  0  0  0  0  0  0  0
  -10.9081  -21.6314   30.0988 H   0  0  0  0  0  0  0  0  0  0  0  0
  -12.2522  -21.1075   32.0340 H   0  0  0  0  0  0  0  0  0  0  0  0
  -13.0142  -22.6508   32.0633 H   0  0  0  0  0  0  0  0  0  0  0  0
  -10.1881  -21.9234   32.6221 H   0  0  0  0  0  0  0  0  0  0  0  0
  -11.4137  -22.6082   33.7283 H   0  0  0  0  0  0  0  0  0  0  0  0
  -10.6293  -24.6675   33.2737 H   0  0  0  0  0  0  0  0  0  0  0  0
   -9.3344  -23.9431   32.3929 H   0  0  0  0  0  0  0  0  0  0  0  0
  -10.2250  -25.3735   30.8319 H   0  0  0  0  0  0  0  0  0  0  0  0
  -11.8475  -25.1805   31.4688 H   0  0  0  0  0  0  0  0  0  0  0  0
  -11.5511  -26.2282   26.7623 H   0  0  0  0  0  0  0  0  0  0  0  0
  -11.1723  -25.7871   24.4344 H   0  0  0  0  0  0  0  0  0  0  0  0
   -9.2417  -21.7642   19.5474 H   0  0  0  0  0  0  0  0  0  0  0  0
   -7.8527  -20.7546   17.5163 H   0  0  0  0  0  0  0  0  0  0  0  0
   -9.2941  -19.7640   17.3696 H   0  0  0  0  0  0  0  0  0  0  0  0
  1  2  2  0
  2  3  1  0
  3  4  1  0
  4  5  1  0
  5  6  2  0
  6  7  1  0
  7  8  2  0
  8  9  1  0
  9 10  1  0
 10 11  2  0
 10 12  2  0
 10 13  1  0
 13 14  1  0
 14 15  1  0
 15 16  1  0
 16 17  1  0
 17 18  1  0
  9 19  2  0
 19 20  1  0
 20 21  2  0
 21 22  1  0
  2 23  1  0
 23 24  1  0
 24 25  1  0
 25 26  1  0
 25 27  1  0
 25 28  1  0
 22  5  1  0
 21  7  1  0
 18 13  1  0
  3 29  1  0
  3 30  1  0
  8 31  1  0
 14 32  1  0
 14 33  1  0
 15 34  1  0
 15 35  1  0
 16 36  1  0
 16 37  1  0
 17 38  1  0
 17 39  1  0
 18 40  1  0
 18 41  1  0
 19 42  1  0
 20 43  1  0
 23 44  1  0
 24 45  1  0
 24 46  1  0
M  END
>  <Energy>  (737) 
165.3906658721306

>  <compound_id>  (737) 
69663

>  <target_id>  (737) 
1

>  <reference_id>  (737) 
46

>  <inspiration_ids>  (737) 
[2, 46]

>  <energy_score>  (737) 
122.1324857878823

>  <distance_score>  (737) 
7.661652314551696

>  <path>  (737) 
/opt/xchem-fragalysis-2/maxwin/BulkDock/SCRATCH/511015/C69663-P46/C69663-P46.minimised.mol

>  <scratch_subdir>  (737) 
/opt/xchem-fragalysis-2/maxwin/BulkDock/SCRATCH/511015/C69663-P46

>  <fragmenstein_runtime>  (737) 
18.66131067276001

>  <fragmenstein_outcome>  (737) 
too moved

>  <fragmenstein_mode>  (737) 
expansion

>  <fragmenstein_error>  (737) 


$$$$
C69675-P2
     RDKit          3D

 48 50  0  0  0  0  0  0  0  0999 V2000
  -12.3278  -25.6762   13.3377 C   0  0  0  0  0  0  0  0  0  0  0  0
  -12.5674  -26.5049   14.6152 C   0  0  0  0  0  0  0  0  0  0  0  0
  -11.5809  -27.4599   14.7976 N   0  0  0  0  0  0  0  0  0  0  0  0
  -13.6168  -26.3073   15.4797 C   0  0  0  0  0  0  0  0  0  0  0  0
  -14.5362  -25.2637   15.1634 C   0  0  0  0  0  0  0  0  0  0  0  0
  -15.2161  -24.3770   14.8490 N   0  0  0  0  0  0  0  0  0  0  0  0
  -13.8629  -27.1880   16.7845 C   0  0  0  0  0  0  0  0  0  0  0  0
  -13.3158  -28.2973   16.8494 O   0  0  0  0  0  0  0  0  0  0  0  0
  -14.7373  -26.6584   18.0133 C   0  0  0  0  0  0  0  0  0  0  0  0
  -15.5927  -28.0032   19.0279 S   0  0  0  0  0  0  0  0  0  0  0  0
  -15.6461  -27.8243   20.8065 C   0  0  0  0  0  0  0  0  0  0  0  0
  -15.7453  -26.7361   21.5656 N   0  0  0  0  0  0  0  0  0  0  0  0
  -15.5498  -27.1691   22.8846 C   0  0  0  0  0  0  0  0  0  0  0  0
  -15.2646  -26.4566   24.0861 C   0  0  0  0  0  0  0  0  0  0  0  0
  -14.6088  -27.1460   25.1536 C   0  0  0  0  0  0  0  0  0  0  0  0
  -13.9511  -26.1774   26.5288 S   0  0  0  0  0  0  0  0  0  0  0  0
  -14.0162  -24.8150   26.0447 O   0  0  0  0  0  0  0  0  0  0  0  0
  -14.6715  -26.5971   27.7152 O   0  0  0  0  0  0  0  0  0  0  0  0
  -12.2763  -26.4648   26.8116 N   0  0  0  0  0  0  0  0  0  0  0  0
  -11.8869  -27.7278   27.5013 C   0  0  0  0  0  0  0  0  0  0  0  0
  -11.7592  -27.5762   29.0153 C   0  0  0  0  0  0  0  0  0  0  0  0
  -10.7825  -26.4866   29.4528 C   0  0  0  0  0  0  0  0  0  0  0  0
  -10.3987  -25.5855   28.2919 C   0  0  0  0  0  0  0  0  0  0  0  0
  -11.6075  -25.2440   27.4313 C   0  0  0  0  0  0  0  0  0  0  0  0
  -14.5050  -28.5406   25.1146 C   0  0  0  0  0  0  0  0  0  0  0  0
  -14.9034  -29.2727   23.9730 C   0  0  0  0  0  0  0  0  0  0  0  0
  -15.3398  -28.5348   22.8715 C   0  0  0  0  0  0  0  0  0  0  0  0
  -15.4873  -28.9703   21.5835 O   0  0  0  0  0  0  0  0  0  0  0  0
  -11.3318  -25.2209   13.3771 H   0  0  0  0  0  0  0  0  0  0  0  0
  -12.3764  -26.3304   12.4603 H   0  0  0  0  0  0  0  0  0  0  0  0
  -13.0467  -24.8685   13.1869 H   0  0  0  0  0  0  0  0  0  0  0  0
  -11.8343  -28.2038   15.4575 H   0  0  0  0  0  0  0  0  0  0  0  0
  -11.1449  -27.8129   13.9487 H   0  0  0  0  0  0  0  0  0  0  0  0
  -15.5434  -26.0700   17.5725 H   0  0  0  0  0  0  0  0  0  0  0  0
  -14.1099  -26.0363   18.6507 H   0  0  0  0  0  0  0  0  0  0  0  0
  -15.3723  -25.3742   24.0935 H   0  0  0  0  0  0  0  0  0  0  0  0
  -10.9345  -28.0631   27.0724 H   0  0  0  0  0  0  0  0  0  0  0  0
  -12.6012  -28.5226   27.2850 H   0  0  0  0  0  0  0  0  0  0  0  0
  -12.7507  -27.3731   29.4159 H   0  0  0  0  0  0  0  0  0  0  0  0
  -11.4522  -28.5329   29.4545 H   0  0  0  0  0  0  0  0  0  0  0  0
  -11.2206  -25.8955   30.2634 H   0  0  0  0  0  0  0  0  0  0  0  0
   -9.8754  -26.9431   29.8668 H   0  0  0  0  0  0  0  0  0  0  0  0
   -9.9270  -24.6710   28.6667 H   0  0  0  0  0  0  0  0  0  0  0  0
   -9.6539  -26.1085   27.6881 H   0  0  0  0  0  0  0  0  0  0  0  0
  -11.3026  -24.5808   26.6144 H   0  0  0  0  0  0  0  0  0  0  0  0
  -12.3158  -24.7143   28.0656 H   0  0  0  0  0  0  0  0  0  0  0  0
  -14.1082  -29.0930   25.9612 H   0  0  0  0  0  0  0  0  0  0  0  0
  -14.7719  -30.3485   23.9132 H   0  0  0  0  0  0  0  0  0  0  0  0
  1  2  1  0
  2  3  1  0
  2  4  2  3
  4  5  1  0
  5  6  3  0
  4  7  1  0
  7  8  2  0
  7  9  1  0
  9 10  1  0
 10 11  1  0
 11 12  2  0
 12 13  1  0
 13 14  2  0
 14 15  1  0
 15 16  1  0
 16 17  2  0
 16 18  2  0
 16 19  1  0
 19 20  1  0
 20 21  1  0
 21 22  1  0
 22 23  1  0
 23 24  1  0
 15 25  2  0
 25 26  1  0
 26 27  2  0
 27 28  1  0
 28 11  1  0
 27 13  1  0
 24 19  1  0
  1 29  1  0
  1 30  1  0
  1 31  1  0
  3 32  1  0
  3 33  1  0
  9 34  1  0
  9 35  1  0
 14 36  1  0
 20 37  1  0
 20 38  1  0
 21 39  1  0
 21 40  1  0
 22 41  1  0
 22 42  1  0
 23 43  1  0
 23 44  1  0
 24 45  1  0
 24 46  1  0
 25 47  1  0
 26 48  1  0
M  END
>  <Energy>  (738) 
38.844848749566232

>  <compound_id>  (738) 
69675

>  <target_id>  (738) 
1

>  <reference_id>  (738) 
2

>  <inspiration_ids>  (738) 
[2, 46]

>  <energy_score>  (738) 
-46.28732988008346

>  <distance_score>  (738) 
8.928643707317484

>  <path>  (738) 
/opt/xchem-fragalysis-2/maxwin/BulkDock/SCRATCH/511015/C69675-P2/C69675-P2.minimised.mol

>  <scratch_subdir>  (738) 
/opt/xchem-fragalysis-2/maxwin/BulkDock/SCRATCH/511015/C69675-P2

>  <fragmenstein_runtime>  (738) 
23.80669069290161

>  <fragmenstein_outcome>  (738) 
too moved

>  <fragmenstein_mode>  (738) 
expansion

>  <fragmenstein_error>  (738) 


$$$$
C69675-P46
     RDKit          3D

 48 50  0  0  0  0  0  0  0  0999 V2000
  -11.1299  -25.1833   12.4777 C   0  0  0  0  0  0  0  0  0  0  0  0
  -11.7979  -25.5700   13.8122 C   0  0  0  0  0  0  0  0  0  0  0  0
  -10.9560  -26.2377   14.6938 N   0  0  0  0  0  0  0  0  0  0  0  0
  -13.0994  -25.2641   14.0777 C   0  0  0  0  0  0  0  0  0  0  0  0
  -13.8092  -24.6041   13.0114 C   0  0  0  0  0  0  0  0  0  0  0  0
  -14.2695  -24.0855   12.0793 N   0  0  0  0  0  0  0  0  0  0  0  0
  -13.9522  -25.5221   15.3704 C   0  0  0  0  0  0  0  0  0  0  0  0
  -15.1848  -25.5509   15.2208 O   0  0  0  0  0  0  0  0  0  0  0  0
  -13.3929  -25.7155   16.8464 C   0  0  0  0  0  0  0  0  0  0  0  0
  -13.9093  -24.1785   17.9096 S   0  0  0  0  0  0  0  0  0  0  0  0
  -13.0585  -24.0120   19.8549 C   0  0  0  0  0  0  0  0  0  0  0  0
  -12.4849  -22.8321   20.5103 N   0  0  0  0  0  0  0  0  0  0  0  0
  -12.8791  -22.6562   22.1311 C   0  0  0  0  0  0  0  0  0  0  0  0
  -12.2308  -22.3589   23.4041 C   0  0  0  0  0  0  0  0  0  0  0  0
  -12.7710  -22.9873   24.6970 C   0  0  0  0  0  0  0  0  0  0  0  0
  -11.7389  -23.4243   26.1108 S   0  0  0  0  0  0  0  0  0  0  0  0
  -11.5097  -22.2793   26.9600 O   0  0  0  0  0  0  0  0  0  0  0  0
  -10.7306  -24.1425   25.3720 O   0  0  0  0  0  0  0  0  0  0  0  0
  -12.3796  -24.6169   27.1945 N   0  0  0  0  0  0  0  0  0  0  0  0
  -12.8724  -23.9966   28.4501 C   0  0  0  0  0  0  0  0  0  0  0  0
  -11.7686  -23.8436   29.5021 C   0  0  0  0  0  0  0  0  0  0  0  0
  -11.1182  -25.1592   29.9109 C   0  0  0  0  0  0  0  0  0  0  0  0
  -11.3215  -26.2571   28.8744 C   0  0  0  0  0  0  0  0  0  0  0  0
  -11.3804  -25.7060   27.4653 C   0  0  0  0  0  0  0  0  0  0  0  0
  -13.9322  -23.7057   24.7907 C   0  0  0  0  0  0  0  0  0  0  0  0
  -14.4923  -24.0314   23.6188 C   0  0  0  0  0  0  0  0  0  0  0  0
  -13.9586  -23.5306   22.3524 C   0  0  0  0  0  0  0  0  0  0  0  0
  -14.0685  -24.4576   20.8788 O   0  0  0  0  0  0  0  0  0  0  0  0
  -11.2533  -24.1157   12.2678 H   0  0  0  0  0  0  0  0  0  0  0  0
  -10.0513  -25.3752   12.5112 H   0  0  0  0  0  0  0  0  0  0  0  0
  -11.5453  -25.7767   11.6568 H   0  0  0  0  0  0  0  0  0  0  0  0
  -10.1279  -25.6499   14.8703 H   0  0  0  0  0  0  0  0  0  0  0  0
  -10.5211  -27.0315   14.2123 H   0  0  0  0  0  0  0  0  0  0  0  0
  -13.9012  -26.5826   17.2806 H   0  0  0  0  0  0  0  0  0  0  0  0
  -12.3292  -25.9480   16.8179 H   0  0  0  0  0  0  0  0  0  0  0  0
  -11.2271  -21.9490   23.3640 H   0  0  0  0  0  0  0  0  0  0  0  0
  -13.7094  -24.6079   28.7597 H   0  0  0  0  0  0  0  0  0  0  0  0
  -13.3157  -23.0230   28.2583 H   0  0  0  0  0  0  0  0  0  0  0  0
  -10.9834  -23.2007   29.0952 H   0  0  0  0  0  0  0  0  0  0  0  0
  -12.1298  -23.3132   30.3881 H   0  0  0  0  0  0  0  0  0  0  0  0
  -11.4799  -25.4919   30.8883 H   0  0  0  0  0  0  0  0  0  0  0  0
  -10.0427  -24.9904   30.0473 H   0  0  0  0  0  0  0  0  0  0  0  0
  -10.4872  -26.9664   28.9511 H   0  0  0  0  0  0  0  0  0  0  0  0
  -12.2077  -26.8614   29.0556 H   0  0  0  0  0  0  0  0  0  0  0  0
  -11.5443  -26.5136   26.7445 H   0  0  0  0  0  0  0  0  0  0  0  0
  -10.3946  -25.2974   27.3190 H   0  0  0  0  0  0  0  0  0  0  0  0
  -14.2358  -24.2570   25.6756 H   0  0  0  0  0  0  0  0  0  0  0  0
  -15.1254  -24.9260   23.6529 H   0  0  0  0  0  0  0  0  0  0  0  0
  1  2  1  0
  2  3  1  0
  2  4  2  3
  4  5  1  0
  5  6  3  0
  4  7  1  0
  7  8  2  0
  7  9  1  0
  9 10  1  0
 10 11  1  0
 11 12  2  0
 12 13  1  0
 13 14  2  0
 14 15  1  0
 15 16  1  0
 16 17  2  0
 16 18  2  0
 16 19  1  0
 19 20  1  0
 20 21  1  0
 21 22  1  0
 22 23  1  0
 23 24  1  0
 15 25  2  0
 25 26  1  0
 26 27  2  0
 27 28  1  0
 28 11  1  0
 27 13  1  0
 24 19  1  0
  1 29  1  0
  1 30  1  0
  1 31  1  0
  3 32  1  0
  3 33  1  0
  9 34  1  0
  9 35  1  0
 14 36  1  0
 20 37  1  0
 20 38  1  0
 21 39  1  0
 21 40  1  0
 22 41  1  0
 22 42  1  0
 23 43  1  0
 23 44  1  0
 24 45  1  0
 24 46  1  0
 25 47  1  0
 26 48  1  0
M  END
>  <Energy>  (739) 
219.6500160922507

>  <compound_id>  (739) 
69675

>  <target_id>  (739) 
1

>  <reference_id>  (739) 
46

>  <inspiration_ids>  (739) 
[2, 46]

>  <energy_score>  (739) 
134.51783746259463

>  <distance_score>  (739) 
7.9920436627412395

>  <path>  (739) 
/opt/xchem-fragalysis-2/maxwin/BulkDock/SCRATCH/511015/C69675-P46/C69675-P46.minimised.mol

>  <scratch_subdir>  (739) 
/opt/xchem-fragalysis-2/maxwin/BulkDock/SCRATCH/511015/C69675-P46

>  <fragmenstein_runtime>  (739) 
15.007033348083496

>  <fragmenstein_outcome>  (739) 
too moved

>  <fragmenstein_mode>  (739) 
expansion

>  <fragmenstein_error>  (739) 


$$$$
C69679-P2
     RDKit          3D

 46 49  0  0  0  0  0  0  0  0999 V2000
   -9.3479  -22.4895   20.6744 O   0  0  0  0  0  0  0  0  0  0  0  0
  -10.0470  -21.8505   20.0554 C   0  0  0  0  0  0  0  0  0  0  0  0
   -9.2235  -21.3259   18.1470 C   0  0  0  0  0  0  0  0  0  0  0  0
   -9.6989  -22.0944   16.2494 C   0  0  0  0  0  0  0  0  0  0  0  0
   -9.5188  -23.4152   15.5878 C   0  0  0  0  0  0  0  0  0  0  0  0
  -10.0675  -24.3230   14.5269 C   0  0  0  0  0  0  0  0  0  0  0  0
  -10.2690  -23.5985   13.4333 C   0  0  0  0  0  0  0  0  0  0  0  0
  -10.2387  -23.9810   12.1388 O   0  0  0  0  0  0  0  0  0  0  0  0
  -10.0930  -22.7882   11.5170 C   0  0  0  0  0  0  0  0  0  0  0  0
  -10.1845  -21.7338   12.3055 N   0  0  0  0  0  0  0  0  0  0  0  0
  -10.2802  -22.2465   13.5757 C   0  0  0  0  0  0  0  0  0  0  0  0
  -10.1352  -21.6636   14.9884 C   0  0  0  0  0  0  0  0  0  0  0  0
  -11.4619  -21.7218   20.7936 N   0  0  0  0  0  0  0  0  0  0  0  0
  -11.4932  -20.6622   21.6227 C   0  0  0  0  0  0  0  0  0  0  0  0
  -10.8574  -21.0736   23.0255 C   0  0  0  0  0  0  0  0  0  0  0  0
  -12.0573  -21.8645   23.5266 C   0  0  0  0  0  0  0  0  0  0  0  0
  -12.4883  -22.9802   24.4409 N   0  0  0  0  0  0  0  0  0  0  0  0
  -13.9418  -23.2050   24.4317 C   0  0  0  0  0  0  0  0  0  0  0  0
  -14.4637  -24.4732   25.1203 C   0  0  0  0  0  0  0  0  0  0  0  0
  -13.4550  -25.3473   25.8449 C   0  0  0  0  0  0  0  0  0  0  0  0
  -12.2985  -24.6027   26.4549 C   0  0  0  0  0  0  0  0  0  0  0  0
  -11.8333  -23.3721   25.6758 C   0  0  0  0  0  0  0  0  0  0  0  0
  -12.0648  -22.3495   22.0520 C   0  0  0  0  0  0  0  0  0  0  0  0
   -9.7973  -22.1758   18.1611 H   0  0  0  0  0  0  0  0  0  0  0  0
   -9.3742  -20.2734   17.9534 H   0  0  0  0  0  0  0  0  0  0  0  0
   -8.7113  -23.9954   15.9632 H   0  0  0  0  0  0  0  0  0  0  0  0
   -9.8238  -25.3765   14.4835 H   0  0  0  0  0  0  0  0  0  0  0  0
   -9.9407  -22.8106   10.4477 H   0  0  0  0  0  0  0  0  0  0  0  0
  -10.4117  -20.6587   15.0593 H   0  0  0  0  0  0  0  0  0  0  0  0
  -11.3478  -19.9063   20.9949 H   0  0  0  0  0  0  0  0  0  0  0  0
  -12.4032  -20.4547   22.0189 H   0  0  0  0  0  0  0  0  0  0  0  0
   -9.9539  -21.6782   22.9014 H   0  0  0  0  0  0  0  0  0  0  0  0
  -10.6767  -20.2432   23.6665 H   0  0  0  0  0  0  0  0  0  0  0  0
  -12.7629  -21.1053   23.8231 H   0  0  0  0  0  0  0  0  0  0  0  0
  -14.2561  -23.3055   23.3908 H   0  0  0  0  0  0  0  0  0  0  0  0
  -14.5364  -22.3490   24.7403 H   0  0  0  0  0  0  0  0  0  0  0  0
  -14.9512  -25.1067   24.3669 H   0  0  0  0  0  0  0  0  0  0  0  0
  -15.2780  -24.1945   25.7818 H   0  0  0  0  0  0  0  0  0  0  0  0
  -13.0496  -26.0738   25.1297 H   0  0  0  0  0  0  0  0  0  0  0  0
  -13.9586  -25.9568   26.6041 H   0  0  0  0  0  0  0  0  0  0  0  0
  -11.4596  -25.3068   26.5517 H   0  0  0  0  0  0  0  0  0  0  0  0
  -12.5106  -24.3235   27.4826 H   0  0  0  0  0  0  0  0  0  0  0  0
  -11.7800  -22.5465   26.3904 H   0  0  0  0  0  0  0  0  0  0  0  0
  -10.8398  -23.6999   25.3746 H   0  0  0  0  0  0  0  0  0  0  0  0
  -11.4105  -23.0902   22.2548 H   0  0  0  0  0  0  0  0  0  0  0  0
  -13.0644  -22.6506   21.7799 H   0  0  0  0  0  0  0  0  0  0  0  0
  1  2  2  0
  2  3  1  0
  3  4  1  0
  4  5  2  0
  5  6  1  0
  6  7  2  0
  7  8  1  0
  8  9  1  0
  9 10  2  0
 10 11  1  0
 11 12  2  0
  2 13  1  0
 13 14  1  0
 14 15  1  0
 15 16  1  0
 16 17  1  0
 17 18  1  0
 18 19  1  0
 19 20  1  0
 20 21  1  0
 21 22  1  0
 16 23  1  0
 12  4  1  0
 23 13  1  0
 11  7  1  0
 22 17  1  0
  3 24  1  0
  3 25  1  0
  5 26  1  0
  6 27  1  0
  9 28  1  0
 12 29  1  0
 14 30  1  0
 14 31  1  0
 15 32  1  0
 15 33  1  0
 16 34  1  0
 18 35  1  0
 18 36  1  0
 19 37  1  0
 19 38  1  0
 20 39  1  0
 20 40  1  0
 21 41  1  0
 21 42  1  0
 22 43  1  0
 22 44  1  0
 23 45  1  0
 23 46  1  0
M  END
>  <Energy>  (740) 
662.26464005077332

>  <compound_id>  (740) 
69679

>  <target_id>  (740) 
1

>  <reference_id>  (740) 
2

>  <inspiration_ids>  (740) 
[2, 46]

>  <energy_score>  (740) 
566.6554843903449

>  <distance_score>  (740) 
7.887514143272075

>  <path>  (740) 
/opt/xchem-fragalysis-2/maxwin/BulkDock/SCRATCH/511015/C69679-P2/C69679-P2.minimised.mol

>  <scratch_subdir>  (740) 
/opt/xchem-fragalysis-2/maxwin/BulkDock/SCRATCH/511015/C69679-P2

>  <fragmenstein_runtime>  (740) 
14.54098105430603

>  <fragmenstein_outcome>  (740) 
too moved

>  <fragmenstein_mode>  (740) 
expansion

>  <fragmenstein_error>  (740) 


$$$$
C69679-P46
     RDKit          3D

 46 49  0  0  0  0  0  0  0  0999 V2000
  -11.4698  -21.9468   19.7142 O   0  0  0  0  0  0  0  0  0  0  0  0
  -10.4027  -21.6044   20.0786 C   0  0  0  0  0  0  0  0  0  0  0  0
   -9.2034  -21.0442   18.3780 C   0  0  0  0  0  0  0  0  0  0  0  0
   -9.5308  -21.5766   16.3591 C   0  0  0  0  0  0  0  0  0  0  0  0
   -9.4216  -22.9398   15.5528 C   0  0  0  0  0  0  0  0  0  0  0  0
   -9.9155  -23.8118   14.4111 C   0  0  0  0  0  0  0  0  0  0  0  0
  -10.0207  -23.0313   13.3314 C   0  0  0  0  0  0  0  0  0  0  0  0
   -9.9585  -23.3513   12.0191 O   0  0  0  0  0  0  0  0  0  0  0  0
   -9.8773  -22.1253   11.4444 C   0  0  0  0  0  0  0  0  0  0  0  0
  -10.0550  -21.1050   12.2613 N   0  0  0  0  0  0  0  0  0  0  0  0
  -10.0538  -21.6775   13.5176 C   0  0  0  0  0  0  0  0  0  0  0  0
   -9.8853  -21.0691   15.0040 C   0  0  0  0  0  0  0  0  0  0  0  0
  -10.2518  -21.8867   21.7704 N   0  0  0  0  0  0  0  0  0  0  0  0
  -10.6882  -20.7522   22.5634 C   0  0  0  0  0  0  0  0  0  0  0  0
  -11.7245  -20.9624   23.8011 C   0  0  0  0  0  0  0  0  0  0  0  0
  -12.2873  -22.2822   23.6338 C   0  0  0  0  0  0  0  0  0  0  0  0
  -12.5475  -23.1960   24.7806 N   0  0  0  0  0  0  0  0  0  0  0  0
  -11.5590  -24.0498   25.4166 C   0  0  0  0  0  0  0  0  0  0  0  0
  -11.8024  -24.0866   26.9199 C   0  0  0  0  0  0  0  0  0  0  0  0
  -13.1953  -24.6297   27.2054 C   0  0  0  0  0  0  0  0  0  0  0  0
  -13.9866  -24.9078   25.9133 C   0  0  0  0  0  0  0  0  0  0  0  0
  -13.8779  -23.8111   24.8263 C   0  0  0  0  0  0  0  0  0  0  0  0
  -11.1086  -22.5351   22.7571 C   0  0  0  0  0  0  0  0  0  0  0  0
   -9.6459  -21.9669   18.3297 H   0  0  0  0  0  0  0  0  0  0  0  0
   -9.4723  -20.0419   18.1305 H   0  0  0  0  0  0  0  0  0  0  0  0
   -8.3516  -22.8303   15.1906 H   0  0  0  0  0  0  0  0  0  0  0  0
   -9.7095  -24.8710   14.3556 H   0  0  0  0  0  0  0  0  0  0  0  0
   -9.7077  -22.1003   10.3782 H   0  0  0  0  0  0  0  0  0  0  0  0
  -10.0758  -20.0106   14.9166 H   0  0  0  0  0  0  0  0  0  0  0  0
   -9.9355  -20.2851   23.0992 H   0  0  0  0  0  0  0  0  0  0  0  0
  -11.3298  -20.2590   21.8552 H   0  0  0  0  0  0  0  0  0  0  0  0
  -12.4992  -20.2556   23.8938 H   0  0  0  0  0  0  0  0  0  0  0  0
  -11.3529  -20.7213   24.7635 H   0  0  0  0  0  0  0  0  0  0  0  0
  -13.2093  -22.2041   23.0535 H   0  0  0  0  0  0  0  0  0  0  0  0
  -10.5417  -23.7881   25.2232 H   0  0  0  0  0  0  0  0  0  0  0  0
  -11.5998  -25.0761   25.0336 H   0  0  0  0  0  0  0  0  0  0  0  0
  -11.6909  -23.0842   27.3514 H   0  0  0  0  0  0  0  0  0  0  0  0
  -11.0537  -24.7205   27.4073 H   0  0  0  0  0  0  0  0  0  0  0  0
  -13.1157  -25.5650   27.7696 H   0  0  0  0  0  0  0  0  0  0  0  0
  -13.7043  -23.9229   27.8608 H   0  0  0  0  0  0  0  0  0  0  0  0
  -13.6005  -25.8458   25.4877 H   0  0  0  0  0  0  0  0  0  0  0  0
  -15.0371  -25.1268   26.1046 H   0  0  0  0  0  0  0  0  0  0  0  0
  -14.1495  -24.2936   23.8836 H   0  0  0  0  0  0  0  0  0  0  0  0
  -14.6532  -23.0498   24.8823 H   0  0  0  0  0  0  0  0  0  0  0  0
  -11.7225  -22.9560   21.9864 H   0  0  0  0  0  0  0  0  0  0  0  0
  -10.4074  -23.1600   23.3125 H   0  0  0  0  0  0  0  0  0  0  0  0
  1  2  2  0
  2  3  1  0
  3  4  1  0
  4  5  2  0
  5  6  1  0
  6  7  2  0
  7  8  1  0
  8  9  1  0
  9 10  2  0
 10 11  1  0
 11 12  2  0
  2 13  1  0
 13 14  1  0
 14 15  1  0
 15 16  1  0
 16 17  1  0
 17 18  1  0
 18 19  1  0
 19 20  1  0
 20 21  1  0
 21 22  1  0
 16 23  1  0
 12  4  1  0
 23 13  1  0
 11  7  1  0
 22 17  1  0
  3 24  1  0
  3 25  1  0
  5 26  1  0
  6 27  1  0
  9 28  1  0
 12 29  1  0
 14 30  1  0
 14 31  1  0
 15 32  1  0
 15 33  1  0
 16 34  1  0
 18 35  1  0
 18 36  1  0
 19 37  1  0
 19 38  1  0
 20 39  1  0
 20 40  1  0
 21 41  1  0
 21 42  1  0
 22 43  1  0
 22 44  1  0
 23 45  1  0
 23 46  1  0
M  END
>  <Energy>  (741) 
711.65802027730115

>  <compound_id>  (741) 
69679

>  <target_id>  (741) 
1

>  <reference_id>  (741) 
46

>  <inspiration_ids>  (741) 
[2, 46]

>  <energy_score>  (741) 
616.0488646168715

>  <distance_score>  (741) 
7.409305645162302

>  <path>  (741) 
/opt/xchem-fragalysis-2/maxwin/BulkDock/SCRATCH/511015/C69679-P46/C69679-P46.minimised.mol

>  <scratch_subdir>  (741) 
/opt/xchem-fragalysis-2/maxwin/BulkDock/SCRATCH/511015/C69679-P46

>  <fragmenstein_runtime>  (741) 
17.15263319015503

>  <fragmenstein_outcome>  (741) 
too moved

>  <fragmenstein_mode>  (741) 
expansion

>  <fragmenstein_error>  (741) 


$$$$
C28115-P94
     RDKit          3D

 38 40  0  0  0  0  0  0  0  0999 V2000
  -10.0227    2.7964    5.7041 O   0  0  0  0  0  0  0  0  0  0  0  0
   -9.3559    1.7686    5.6037 C   0  0  0  0  0  0  0  0  0  0  0  0
   -8.7234    1.1000    6.8212 C   0  0  0  0  0  0  0  0  0  0  0  0
   -7.5482    0.2488    6.4887 N   0  0  0  0  0  0  0  0  0  0  0  0
   -7.0817   -0.4477    7.7089 C   0  0  0  0  0  0  0  0  0  0  0  0
   -8.1290   -1.4365    8.2596 C   0  0  0  0  0  0  0  0  0  0  0  0
   -8.9810   -1.0555    9.0111 O   0  0  0  0  0  0  0  0  0  0  0  0
   -7.9174   -2.7265    7.6500 N   0  0  0  0  0  0  0  0  0  0  0  0
   -8.6858   -3.8852    7.6769 C   0  0  0  0  0  0  0  0  0  0  0  0
   -8.9711   -4.3372    6.3844 C   0  0  0  0  0  0  0  0  0  0  0  0
   -9.8873   -5.3491    6.0709 C   0  0  0  0  0  0  0  0  0  0  0  0
  -10.3675   -6.3060    7.0482 C   0  0  0  0  0  0  0  0  0  0  0  0
  -11.9366   -7.6860    7.0579 N   0  0  0  0  0  0  0  0  0  0  0  0
  -13.3148   -7.2232    8.4358 C   0  0  0  0  0  0  0  0  0  0  0  0
  -13.8746   -8.7061    9.4524 C   0  0  0  0  0  0  0  0  0  0  0  0
  -14.3151   -8.3620   10.7181 F   0  0  0  0  0  0  0  0  0  0  0  0
  -12.8432   -9.5893    9.7345 F   0  0  0  0  0  0  0  0  0  0  0  0
  -14.8501   -9.4723    8.9075 F   0  0  0  0  0  0  0  0  0  0  0  0
  -12.1315   -6.5283    9.6787 N   0  0  0  0  0  0  0  0  0  0  0  0
  -10.3208   -5.5854    8.9399 C   0  0  0  0  0  0  0  0  0  0  0  0
   -9.3181   -4.3811    8.8564 C   0  0  0  0  0  0  0  0  0  0  0  0
   -7.9076   -0.6651    5.3901 C   0  0  0  0  0  0  0  0  0  0  0  0
   -8.2343    0.1453    4.1380 C   0  0  0  0  0  0  0  0  0  0  0  0
   -9.2589    1.1314    4.3930 N   0  0  0  0  0  0  0  0  0  0  0  0
   -9.5351    0.5342    7.2890 H   0  0  0  0  0  0  0  0  0  0  0  0
   -8.4031    1.8957    7.5034 H   0  0  0  0  0  0  0  0  0  0  0  0
   -6.1349   -0.9620    7.5045 H   0  0  0  0  0  0  0  0  0  0  0  0
   -6.8493    0.2781    8.4982 H   0  0  0  0  0  0  0  0  0  0  0  0
   -7.1436   -2.6628    7.0026 H   0  0  0  0  0  0  0  0  0  0  0  0
   -8.5925   -3.7714    5.5325 H   0  0  0  0  0  0  0  0  0  0  0  0
  -10.2901   -5.3912    5.0588 H   0  0  0  0  0  0  0  0  0  0  0  0
  -12.2904   -7.8874    6.1290 H   0  0  0  0  0  0  0  0  0  0  0  0
   -9.3224   -3.7213    9.6862 H   0  0  0  0  0  0  0  0  0  0  0  0
   -7.0800   -1.3420    5.1653 H   0  0  0  0  0  0  0  0  0  0  0  0
   -8.7863   -1.2689    5.6446 H   0  0  0  0  0  0  0  0  0  0  0  0
   -8.5882   -0.5054    3.3325 H   0  0  0  0  0  0  0  0  0  0  0  0
   -7.3498    0.6843    3.7817 H   0  0  0  0  0  0  0  0  0  0  0  0
   -9.6516    1.6536    3.6205 H   0  0  0  0  0  0  0  0  0  0  0  0
  1  2  2  0
  2  3  1  0
  3  4  1  0
  4  5  1  0
  5  6  1  0
  6  7  2  0
  6  8  1  0
  8  9  1  0
  9 10  2  0
 10 11  1  0
 11 12  2  0
 12 13  1  0
 13 14  1  0
 14 15  1  0
 15 16  1  0
 15 17  1  0
 15 18  1  0
 14 19  2  0
 19 20  1  0
 20 21  2  0
  4 22  1  0
 22 23  1  0
 23 24  1  0
 24  2  1  0
 21  9  1  0
 20 12  1  0
  3 25  1  0
  3 26  1  0
  5 27  1  0
  5 28  1  0
  8 29  1  0
 10 30  1  0
 11 31  1  0
 13 32  1  0
 21 33  1  0
 22 34  1  0
 22 35  1  0
 23 36  1  0
 23 37  1  0
 24 38  1  0
M  END
>  <Energy>  (742) 
972.78141035581302

>  <compound_id>  (742) 
28115

>  <target_id>  (742) 
1

>  <reference_id>  (742) 
94

>  <inspiration_ids>  (742) 
[94, 24]

>  <energy_score>  (742) 
789.6455729825522

>  <distance_score>  (742) 
12.913688560704134

>  <path>  (742) 
/opt/xchem-fragalysis-2/maxwin/BulkDock/SCRATCH/511015/C28115-P94/C28115-P94.minimised.mol

>  <scratch_subdir>  (742) 
/opt/xchem-fragalysis-2/maxwin/BulkDock/SCRATCH/511015/C28115-P94

>  <fragmenstein_runtime>  (742) 
29.758697271347046

>  <fragmenstein_outcome>  (742) 
too moved

>  <fragmenstein_mode>  (742) 
expansion

>  <fragmenstein_error>  (742) 


$$$$
C28115-P24
     RDKit          3D

 38 40  0  0  0  0  0  0  0  0999 V2000
  -11.3069   -9.4358    6.5224 O   0  0  0  0  0  0  0  0  0  0  0  0
  -11.4530  -10.0959    7.5467 C   0  0  0  0  0  0  0  0  0  0  0  0
  -10.2588  -10.6897    8.2791 C   0  0  0  0  0  0  0  0  0  0  0  0
  -10.5003  -11.4351    9.5425 N   0  0  0  0  0  0  0  0  0  0  0  0
   -9.4969  -12.5322    9.6046 C   0  0  0  0  0  0  0  0  0  0  0  0
   -9.4926  -13.4175   10.8830 C   0  0  0  0  0  0  0  0  0  0  0  0
  -10.5018  -13.6528   11.4823 O   0  0  0  0  0  0  0  0  0  0  0  0
   -8.1386  -13.9102   11.0765 N   0  0  0  0  0  0  0  0  0  0  0  0
   -7.6318  -14.8671   11.9533 C   0  0  0  0  0  0  0  0  0  0  0  0
   -6.3577  -15.3714   11.6849 C   0  0  0  0  0  0  0  0  0  0  0  0
   -5.8309  -16.4298   12.4471 C   0  0  0  0  0  0  0  0  0  0  0  0
   -6.6027  -16.9174   13.5249 C   0  0  0  0  0  0  0  0  0  0  0  0
   -6.3877  -17.8937   14.4991 N   0  0  0  0  0  0  0  0  0  0  0  0
   -7.4396  -17.8983   15.4145 C   0  0  0  0  0  0  0  0  0  0  0  0
   -7.4664  -18.8251   16.6849 C   0  0  0  0  0  0  0  0  0  0  0  0
   -8.7151  -19.2055   17.0872 F   0  0  0  0  0  0  0  0  0  0  0  0
   -6.8611  -18.2426   17.7629 F   0  0  0  0  0  0  0  0  0  0  0  0
   -6.7889  -20.0007   16.5128 F   0  0  0  0  0  0  0  0  0  0  0  0
   -8.3189  -16.9729   15.0124 N   0  0  0  0  0  0  0  0  0  0  0  0
   -7.8356  -16.3705   13.8551 C   0  0  0  0  0  0  0  0  0  0  0  0
   -8.3724  -15.3400   13.0473 C   0  0  0  0  0  0  0  0  0  0  0  0
  -11.8814  -11.9251    9.6359 C   0  0  0  0  0  0  0  0  0  0  0  0
  -12.8910  -10.8122    9.3527 C   0  0  0  0  0  0  0  0  0  0  0  0
  -12.7078  -10.2988    8.0284 N   0  0  0  0  0  0  0  0  0  0  0  0
   -9.5900   -9.8658    8.5350 H   0  0  0  0  0  0  0  0  0  0  0  0
   -9.7797  -11.3394    7.5363 H   0  0  0  0  0  0  0  0  0  0  0  0
   -9.6191  -13.2201    8.7569 H   0  0  0  0  0  0  0  0  0  0  0  0
   -8.5108  -12.0581    9.5158 H   0  0  0  0  0  0  0  0  0  0  0  0
   -7.5505  -13.5625   10.3311 H   0  0  0  0  0  0  0  0  0  0  0  0
   -5.7712  -14.9935   10.8514 H   0  0  0  0  0  0  0  0  0  0  0  0
   -4.8533  -16.8445   12.2223 H   0  0  0  0  0  0  0  0  0  0  0  0
   -5.5675  -18.4799   14.5613 H   0  0  0  0  0  0  0  0  0  0  0  0
   -9.3477  -14.9358   13.2973 H   0  0  0  0  0  0  0  0  0  0  0  0
  -12.1013  -12.2825   10.6442 H   0  0  0  0  0  0  0  0  0  0  0  0
  -12.0457  -12.7548    8.9357 H   0  0  0  0  0  0  0  0  0  0  0  0
  -12.7798   -9.9861   10.0628 H   0  0  0  0  0  0  0  0  0  0  0  0
  -13.9143  -11.1934    9.4246 H   0  0  0  0  0  0  0  0  0  0  0  0
  -13.4442   -9.8019    7.5433 H   0  0  0  0  0  0  0  0  0  0  0  0
  1  2  2  0
  2  3  1  0
  3  4  1  0
  4  5  1  0
  5  6  1  0
  6  7  2  0
  6  8  1  0
  8  9  1  0
  9 10  2  0
 10 11  1  0
 11 12  2  0
 12 13  1  0
 13 14  1  0
 14 15  1  0
 15 16  1  0
 15 17  1  0
 15 18  1  0
 14 19  2  0
 19 20  1  0
 20 21  2  0
  4 22  1  0
 22 23  1  0
 23 24  1  0
 24  2  1  0
 21  9  1  0
 20 12  1  0
  3 25  1  0
  3 26  1  0
  5 27  1  0
  5 28  1  0
  8 29  1  0
 10 30  1  0
 11 31  1  0
 13 32  1  0
 21 33  1  0
 22 34  1  0
 22 35  1  0
 23 36  1  0
 23 37  1  0
 24 38  1  0
M  END
>  <Energy>  (743) 
146.82246759723873

>  <compound_id>  (743) 
28115

>  <target_id>  (743) 
1

>  <reference_id>  (743) 
24

>  <inspiration_ids>  (743) 
[94, 24]

>  <energy_score>  (743) 
-36.313369776020295

>  <distance_score>  (743) 
14.765795705423821

>  <path>  (743) 
/opt/xchem-fragalysis-2/maxwin/BulkDock/SCRATCH/511015/C28115-P24/C28115-P24.minimised.mol

>  <scratch_subdir>  (743) 
/opt/xchem-fragalysis-2/maxwin/BulkDock/SCRATCH/511015/C28115-P24

>  <fragmenstein_runtime>  (743) 
31.415573596954346

>  <fragmenstein_outcome>  (743) 
too moved

>  <fragmenstein_mode>  (743) 
expansion

>  <fragmenstein_error>  (743) 


$$$$
C44470-P93
     RDKit          3D

 36 38  0  0  0  0  0  0  0  0999 V2000
    9.3751   -0.5413   15.6708 C   0  0  0  0  0  0  0  0  0  0  0  0
    8.1992   -0.0858   16.1751 C   0  0  0  0  0  0  0  0  0  0  0  0
    6.9690   -0.7903   15.8887 C   0  0  0  0  0  0  0  0  0  0  0  0
    6.7324   -1.7809   14.9547 C   0  0  0  0  0  0  0  0  0  0  0  0
    5.4112   -2.6869   14.9571 C   0  0  0  0  0  0  0  0  0  0  0  0
    5.5315   -3.8877   15.5456 N   0  0  0  0  0  0  0  0  0  0  0  0
    4.7579   -4.8434   16.8818 C   0  0  0  0  0  0  0  0  0  0  0  0
    5.4971   -6.3560   18.0463 C   0  0  0  0  0  0  0  0  0  0  0  0
    5.3932   -7.7803   19.6433 C   0  0  0  0  0  0  0  0  0  0  0  0
    4.9902   -8.0553   21.7775 N   0  0  0  0  0  0  0  0  0  0  0  0
    4.9627  -10.0819   22.5704 C   0  0  0  0  0  0  0  0  0  0  0  0
    4.3964  -11.5904   22.1188 C   0  0  0  0  0  0  0  0  0  0  0  0
    3.2837  -12.3703   22.4685 C   0  0  0  0  0  0  0  0  0  0  0  0
    3.3800  -13.6467   21.9870 N   0  0  0  0  0  0  0  0  0  0  0  0
    4.5302  -13.6892   21.3689 C   0  0  0  0  0  0  0  0  0  0  0  0
    5.1885  -12.4948   21.4377 N   0  0  0  0  0  0  0  0  0  0  0  0
    3.9218   -3.5364   16.9419 C   0  0  0  0  0  0  0  0  0  0  0  0
    3.7954   -2.3189   15.4352 S   0  0  0  0  0  0  0  0  0  0  0  0
    7.9709   -2.2299   14.5865 C   0  0  0  0  0  0  0  0  0  0  0  0
    9.2571   -1.7124   14.9868 C   0  0  0  0  0  0  0  0  0  0  0  0
   10.3301   -0.0745   15.8670 H   0  0  0  0  0  0  0  0  0  0  0  0
    8.1952    0.7553   16.8610 H   0  0  0  0  0  0  0  0  0  0  0  0
    6.1337   -0.6097   16.5282 H   0  0  0  0  0  0  0  0  0  0  0  0
    5.3189   -7.0684   17.2236 H   0  0  0  0  0  0  0  0  0  0  0  0
    6.5421   -6.0733   18.0596 H   0  0  0  0  0  0  0  0  0  0  0  0
    5.0349   -8.6424   18.9736 H   0  0  0  0  0  0  0  0  0  0  0  0
    4.5638   -6.8123   19.1890 H   0  0  0  0  0  0  0  0  0  0  0  0
    5.6022   -7.4854   22.4058 H   0  0  0  0  0  0  0  0  0  0  0  0
    4.4769   -9.7485   23.4144 H   0  0  0  0  0  0  0  0  0  0  0  0
    5.9323  -10.5927   22.9731 H   0  0  0  0  0  0  0  0  0  0  0  0
    2.4145  -12.1073   23.0543 H   0  0  0  0  0  0  0  0  0  0  0  0
    4.9396  -14.5461   20.8510 H   0  0  0  0  0  0  0  0  0  0  0  0
    6.0773  -12.3017   21.0030 H   0  0  0  0  0  0  0  0  0  0  0  0
    3.1376   -3.1980   17.5744 H   0  0  0  0  0  0  0  0  0  0  0  0
    7.9802   -3.0636   13.9497 H   0  0  0  0  0  0  0  0  0  0  0  0
   10.1601   -2.2313   14.6667 H   0  0  0  0  0  0  0  0  0  0  0  0
  1  2  2  0
  2  3  1  0
  3  4  2  0
  4  5  1  0
  5  6  2  0
  6  7  1  0
  7  8  1  0
  8  9  1  0
  9 10  1  0
 10 11  1  0
 11 12  1  0
 12 13  2  0
 13 14  1  0
 14 15  2  0
 15 16  1  0
  7 17  2  0
 17 18  1  0
  4 19  1  0
 19 20  2  0
 20  1  1  0
 18  5  1  0
 16 12  1  0
  1 21  1  0
  2 22  1  0
  3 23  1  0
  8 24  1  0
  8 25  1  0
  9 26  1  0
  9 27  1  0
 10 28  1  0
 11 29  1  0
 11 30  1  0
 13 31  1  0
 15 32  1  0
 16 33  1  0
 17 34  1  0
 19 35  1  0
 20 36  1  0
M  END
>  <Energy>  (744) 
927.90012636354118

>  <compound_id>  (744) 
44470

>  <target_id>  (744) 
1

>  <reference_id>  (744) 
93

>  <inspiration_ids>  (744) 
[93, 116]

>  <energy_score>  (744) 
830.9545179665306

>  <distance_score>  (744) 
8.371602175345865

>  <path>  (744) 
/opt/xchem-fragalysis-2/maxwin/BulkDock/SCRATCH/511015/C44470-P93/C44470-P93.minimised.mol

>  <scratch_subdir>  (744) 
/opt/xchem-fragalysis-2/maxwin/BulkDock/SCRATCH/511015/C44470-P93

>  <fragmenstein_runtime>  (744) 
13.719650506973267

>  <fragmenstein_outcome>  (744) 
too moved

>  <fragmenstein_mode>  (744) 
expansion

>  <fragmenstein_error>  (744) 


$$$$
C44470-P116
     RDKit          3D

 36 38  0  0  0  0  0  0  0  0999 V2000
    7.4299   -8.7264   10.7249 C   0  0  0  0  0  0  0  0  0  0  0  0
    7.0906   -9.7350   11.6245 C   0  0  0  0  0  0  0  0  0  0  0  0
    6.3968   -9.4574   12.8097 C   0  0  0  0  0  0  0  0  0  0  0  0
    5.8983   -8.1946   13.0688 C   0  0  0  0  0  0  0  0  0  0  0  0
    5.1855   -8.0083   14.3765 C   0  0  0  0  0  0  0  0  0  0  0  0
    4.1624   -8.7535   14.7931 N   0  0  0  0  0  0  0  0  0  0  0  0
    3.8275   -8.5303   16.1625 C   0  0  0  0  0  0  0  0  0  0  0  0
    2.8000   -9.6521   16.8153 C   0  0  0  0  0  0  0  0  0  0  0  0
    1.4621   -9.4217   17.7635 C   0  0  0  0  0  0  0  0  0  0  0  0
    0.8925  -10.6617   18.5488 N   0  0  0  0  0  0  0  0  0  0  0  0
    0.3921  -10.5656   20.0246 C   0  0  0  0  0  0  0  0  0  0  0  0
    0.2161  -11.8908   20.6951 C   0  0  0  0  0  0  0  0  0  0  0  0
   -0.6249  -12.9568   20.4825 C   0  0  0  0  0  0  0  0  0  0  0  0
   -0.4568  -13.9263   21.4290 N   0  0  0  0  0  0  0  0  0  0  0  0
    0.4061  -13.4238   22.2677 C   0  0  0  0  0  0  0  0  0  0  0  0
    0.9269  -12.2841   21.7958 N   0  0  0  0  0  0  0  0  0  0  0  0
    4.6356   -7.5559   16.7413 C   0  0  0  0  0  0  0  0  0  0  0  0
    5.7507   -6.9748   15.6294 S   0  0  0  0  0  0  0  0  0  0  0  0
    6.0063   -7.3063   11.9786 C   0  0  0  0  0  0  0  0  0  0  0  0
    6.8687   -7.4940   10.8965 C   0  0  0  0  0  0  0  0  0  0  0  0
    8.0180   -8.9484    9.8385 H   0  0  0  0  0  0  0  0  0  0  0  0
    7.4203  -10.7566   11.4382 H   0  0  0  0  0  0  0  0  0  0  0  0
    6.2419  -10.2626   13.5267 H   0  0  0  0  0  0  0  0  0  0  0  0
    3.4820  -10.3314   17.3348 H   0  0  0  0  0  0  0  0  0  0  0  0
    2.4359  -10.2215   15.9478 H   0  0  0  0  0  0  0  0  0  0  0  0
    1.6395   -8.6087   18.4592 H   0  0  0  0  0  0  0  0  0  0  0  0
    0.6547   -9.0817   17.1047 H   0  0  0  0  0  0  0  0  0  0  0  0
    0.1573  -11.0968   17.9919 H   0  0  0  0  0  0  0  0  0  0  0  0
    1.0676   -9.9502   20.6047 H   0  0  0  0  0  0  0  0  0  0  0  0
   -0.5708  -10.0449   19.9827 H   0  0  0  0  0  0  0  0  0  0  0  0
   -1.3510  -13.0757   19.6886 H   0  0  0  0  0  0  0  0  0  0  0  0
    0.6832  -13.8030   23.2187 H   0  0  0  0  0  0  0  0  0  0  0  0
    1.6388  -11.7419   22.2622 H   0  0  0  0  0  0  0  0  0  0  0  0
    4.6989   -7.2428   17.7684 H   0  0  0  0  0  0  0  0  0  0  0  0
    5.3566   -6.4488   11.8642 H   0  0  0  0  0  0  0  0  0  0  0  0
    6.9624   -6.7513   10.1090 H   0  0  0  0  0  0  0  0  0  0  0  0
  1  2  2  0
  2  3  1  0
  3  4  2  0
  4  5  1  0
  5  6  2  0
  6  7  1  0
  7  8  1  0
  8  9  1  0
  9 10  1  0
 10 11  1  0
 11 12  1  0
 12 13  2  0
 13 14  1  0
 14 15  2  0
 15 16  1  0
  7 17  2  0
 17 18  1  0
  4 19  1  0
 19 20  2  0
 20  1  1  0
 18  5  1  0
 16 12  1  0
  1 21  1  0
  2 22  1  0
  3 23  1  0
  8 24  1  0
  8 25  1  0
  9 26  1  0
  9 27  1  0
 10 28  1  0
 11 29  1  0
 11 30  1  0
 13 31  1  0
 15 32  1  0
 16 33  1  0
 17 34  1  0
 19 35  1  0
 20 36  1  0
M  END
>  <Energy>  (745) 
88.986724497752306

>  <compound_id>  (745) 
44470

>  <target_id>  (745) 
1

>  <reference_id>  (745) 
116

>  <inspiration_ids>  (745) 
[93, 116]

>  <energy_score>  (745) 
6.291473669025265

>  <distance_score>  (745) 
10.438223013231545

>  <path>  (745) 
/opt/xchem-fragalysis-2/maxwin/BulkDock/SCRATCH/511015/C44470-P116/C44470-P116.minimised.mol

>  <scratch_subdir>  (745) 
/opt/xchem-fragalysis-2/maxwin/BulkDock/SCRATCH/511015/C44470-P116

>  <fragmenstein_runtime>  (745) 
8.127033948898315

>  <fragmenstein_outcome>  (745) 
too moved

>  <fragmenstein_mode>  (745) 
expansion

>  <fragmenstein_error>  (745) 


$$$$
C44513-P93
     RDKit          3D

 31 32  0  0  0  0  0  0  0  0999 V2000
    9.6084   -7.2084   26.7618 C   0  0  0  0  0  0  0  0  0  0  0  0
   10.3162   -7.2403   25.4279 C   0  0  0  0  0  0  0  0  0  0  0  0
   10.6218   -8.4692   24.8730 C   0  0  0  0  0  0  0  0  0  0  0  0
   11.2745   -8.5801   23.6970 N   0  0  0  0  0  0  0  0  0  0  0  0
   11.7032   -7.4151   23.1214 C   0  0  0  0  0  0  0  0  0  0  0  0
   11.4483   -6.1508   23.6428 C   0  0  0  0  0  0  0  0  0  0  0  0
   11.7871   -4.8509   22.8505 C   0  0  0  0  0  0  0  0  0  0  0  0
   13.1229   -4.7017   22.0352 C   0  0  0  0  0  0  0  0  0  0  0  0
   13.0184   -4.6034   20.5515 N   0  0  0  0  0  0  0  0  0  0  0  0
   14.1190   -3.7979   19.9974 C   0  0  0  0  0  0  0  0  0  0  0  0
   14.0243   -3.5263   18.5344 C   0  0  0  0  0  0  0  0  0  0  0  0
   13.1563   -3.8860   17.5242 C   0  0  0  0  0  0  0  0  0  0  0  0
   13.4920   -3.2897   16.3364 N   0  0  0  0  0  0  0  0  0  0  0  0
   14.5783   -2.6038   16.5903 C   0  0  0  0  0  0  0  0  0  0  0  0
   14.9415   -2.7155   17.9000 N   0  0  0  0  0  0  0  0  0  0  0  0
   10.6824   -6.0706   24.7974 N   0  0  0  0  0  0  0  0  0  0  0  0
    9.3927   -6.1779   27.0574 H   0  0  0  0  0  0  0  0  0  0  0  0
    8.6740   -7.7755   26.7202 H   0  0  0  0  0  0  0  0  0  0  0  0
   10.2535   -7.6477   27.5297 H   0  0  0  0  0  0  0  0  0  0  0  0
   10.3540   -9.4054   25.3505 H   0  0  0  0  0  0  0  0  0  0  0  0
   12.2371   -7.5397   22.1835 H   0  0  0  0  0  0  0  0  0  0  0  0
   11.7840   -4.0490   23.6019 H   0  0  0  0  0  0  0  0  0  0  0  0
   10.9427   -4.6262   22.1913 H   0  0  0  0  0  0  0  0  0  0  0  0
   13.8028   -5.5259   22.2782 H   0  0  0  0  0  0  0  0  0  0  0  0
   13.5979   -3.7885   22.4169 H   0  0  0  0  0  0  0  0  0  0  0  0
   12.1265   -4.1627   20.2882 H   0  0  0  0  0  0  0  0  0  0  0  0
   15.0658   -4.3167   20.1924 H   0  0  0  0  0  0  0  0  0  0  0  0
   14.1615   -2.8283   20.5097 H   0  0  0  0  0  0  0  0  0  0  0  0
   12.2899   -4.5266   17.5873 H   0  0  0  0  0  0  0  0  0  0  0  0
   15.1369   -2.0143   15.8755 H   0  0  0  0  0  0  0  0  0  0  0  0
   15.7397   -2.2672   18.3277 H   0  0  0  0  0  0  0  0  0  0  0  0
  1  2  1  0
  2  3  2  0
  3  4  1  0
  4  5  2  0
  5  6  1  0
  6  7  1  0
  7  8  1  0
  8  9  1  0
  9 10  1  0
 10 11  1  0
 11 12  2  0
 12 13  1  0
 13 14  2  0
 14 15  1  0
  6 16  2  0
 16  2  1  0
 15 11  1  0
  1 17  1  0
  1 18  1  0
  1 19  1  0
  3 20  1  0
  5 21  1  0
  7 22  1  0
  7 23  1  0
  8 24  1  0
  8 25  1  0
  9 26  1  0
 10 27  1  0
 10 28  1  0
 12 29  1  0
 14 30  1  0
 15 31  1  0
M  END
>  <Energy>  (746) 
61.835809531790133

>  <compound_id>  (746) 
44513

>  <target_id>  (746) 
1

>  <reference_id>  (746) 
93

>  <inspiration_ids>  (746) 
[93, 116]

>  <energy_score>  (746) 
-2.9721903955933158

>  <distance_score>  (746) 
9.247421096420755

>  <path>  (746) 
/opt/xchem-fragalysis-2/maxwin/BulkDock/SCRATCH/511015/C44513-P93/C44513-P93.minimised.mol

>  <scratch_subdir>  (746) 
/opt/xchem-fragalysis-2/maxwin/BulkDock/SCRATCH/511015/C44513-P93

>  <fragmenstein_runtime>  (746) 
11.252732992172241

>  <fragmenstein_outcome>  (746) 
too moved

>  <fragmenstein_mode>  (746) 
expansion

>  <fragmenstein_error>  (746) 


$$$$
C44513-P116
     RDKit          3D

 31 32  0  0  0  0  0  0  0  0999 V2000
    4.8835   -1.4266   24.3769 C   0  0  0  0  0  0  0  0  0  0  0  0
    4.8191   -1.1824   22.8889 C   0  0  0  0  0  0  0  0  0  0  0  0
    3.7336   -1.6155   22.1349 C   0  0  0  0  0  0  0  0  0  0  0  0
    3.6394   -1.4301   20.8034 N   0  0  0  0  0  0  0  0  0  0  0  0
    4.6370   -0.6996   20.2482 C   0  0  0  0  0  0  0  0  0  0  0  0
    5.7139   -0.1748   20.9658 C   0  0  0  0  0  0  0  0  0  0  0  0
    6.6202    0.9127   20.3483 C   0  0  0  0  0  0  0  0  0  0  0  0
    7.2969    0.6395   18.9770 C   0  0  0  0  0  0  0  0  0  0  0  0
    7.5007    1.8524   18.1678 N   0  0  0  0  0  0  0  0  0  0  0  0
    8.6352    1.8922   17.2405 C   0  0  0  0  0  0  0  0  0  0  0  0
    8.7691    0.7479   16.3138 C   0  0  0  0  0  0  0  0  0  0  0  0
    7.8789   -0.1516   15.7747 C   0  0  0  0  0  0  0  0  0  0  0  0
    8.5414   -1.1802   15.1677 N   0  0  0  0  0  0  0  0  0  0  0  0
    9.8005   -0.8130   15.1355 C   0  0  0  0  0  0  0  0  0  0  0  0
    9.9678    0.3994   15.7323 N   0  0  0  0  0  0  0  0  0  0  0  0
    5.8237   -0.4572   22.3068 N   0  0  0  0  0  0  0  0  0  0  0  0
    5.8645   -1.1272   24.7604 H   0  0  0  0  0  0  0  0  0  0  0  0
    4.7311   -2.4728   24.6429 H   0  0  0  0  0  0  0  0  0  0  0  0
    4.1344   -0.8086   24.8810 H   0  0  0  0  0  0  0  0  0  0  0  0
    2.8960   -2.1481   22.5616 H   0  0  0  0  0  0  0  0  0  0  0  0
    4.4997   -0.4847   19.1933 H   0  0  0  0  0  0  0  0  0  0  0  0
    5.9836    1.8041   20.2630 H   0  0  0  0  0  0  0  0  0  0  0  0
    7.3998    1.1689   21.0771 H   0  0  0  0  0  0  0  0  0  0  0  0
    8.2385    0.1330   19.1779 H   0  0  0  0  0  0  0  0  0  0  0  0
    6.6595   -0.0317   18.3997 H   0  0  0  0  0  0  0  0  0  0  0  0
    6.6473    2.0677   17.6534 H   0  0  0  0  0  0  0  0  0  0  0  0
    8.5578    2.8145   16.6522 H   0  0  0  0  0  0  0  0  0  0  0  0
    9.5370    1.9974   17.8351 H   0  0  0  0  0  0  0  0  0  0  0  0
    6.8024   -0.1717   15.8836 H   0  0  0  0  0  0  0  0  0  0  0  0
   10.6084   -1.3631   14.6701 H   0  0  0  0  0  0  0  0  0  0  0  0
   10.8342    0.9162   15.7812 H   0  0  0  0  0  0  0  0  0  0  0  0
  1  2  1  0
  2  3  2  0
  3  4  1  0
  4  5  2  0
  5  6  1  0
  6  7  1  0
  7  8  1  0
  8  9  1  0
  9 10  1  0
 10 11  1  0
 11 12  2  0
 12 13  1  0
 13 14  2  0
 14 15  1  0
  6 16  2  0
 16  2  1  0
 15 11  1  0
  1 17  1  0
  1 18  1  0
  1 19  1  0
  3 20  1  0
  5 21  1  0
  7 22  1  0
  7 23  1  0
  8 24  1  0
  8 25  1  0
  9 26  1  0
 10 27  1  0
 10 28  1  0
 12 29  1  0
 14 30  1  0
 15 31  1  0
M  END
>  <Energy>  (747) 
61.350462539641264

>  <compound_id>  (747) 
44513

>  <target_id>  (747) 
1

>  <reference_id>  (747) 
116

>  <inspiration_ids>  (747) 
[93, 116]

>  <energy_score>  (747) 
-3.4575373877426614

>  <distance_score>  (747) 
9.912835056091804

>  <path>  (747) 
/opt/xchem-fragalysis-2/maxwin/BulkDock/SCRATCH/511015/C44513-P116/C44513-P116.minimised.mol

>  <scratch_subdir>  (747) 
/opt/xchem-fragalysis-2/maxwin/BulkDock/SCRATCH/511015/C44513-P116

>  <fragmenstein_runtime>  (747) 
8.115983724594116

>  <fragmenstein_outcome>  (747) 
too moved

>  <fragmenstein_mode>  (747) 
expansion

>  <fragmenstein_error>  (747) 


$$$$
C25217-P93
     RDKit          3D

 40 42  0  0  0  0  0  0  0  0999 V2000
    7.2258   -6.0720   22.2706 C   0  0  0  0  0  0  0  0  0  0  0  0
    7.1950   -7.4272   20.7251 C   0  0  0  0  0  0  0  0  0  0  0  0
    5.5249   -7.4749   22.0859 C   0  0  0  0  0  0  0  0  0  0  0  0
    4.1672   -8.9686   22.1674 N   0  0  0  0  0  0  0  0  0  0  0  0
    2.9496   -9.4666   21.0359 C   0  0  0  0  0  0  0  0  0  0  0  0
    2.5946   -8.9521   19.9827 O   0  0  0  0  0  0  0  0  0  0  0  0
    2.3009  -10.7523   21.2757 C   0  0  0  0  0  0  0  0  0  0  0  0
    2.8264  -11.9417   21.7599 C   0  0  0  0  0  0  0  0  0  0  0  0
    1.9482  -12.9853   21.6177 N   0  0  0  0  0  0  0  0  0  0  0  0
    0.8977  -12.4566   21.0367 C   0  0  0  0  0  0  0  0  0  0  0  0
    1.0509  -11.1176   20.8260 N   0  0  0  0  0  0  0  0  0  0  0  0
    9.3955   -7.7732   20.5122 N   0  0  0  0  0  0  0  0  0  0  0  0
   10.8200   -6.4511   20.6319 C   0  0  0  0  0  0  0  0  0  0  0  0
   10.6828   -5.2886   20.7094 O   0  0  0  0  0  0  0  0  0  0  0  0
   12.3030   -6.7872   20.7994 C   0  0  0  0  0  0  0  0  0  0  0  0
   12.7942   -7.7183   21.7256 C   0  0  0  0  0  0  0  0  0  0  0  0
   14.1637   -7.7181   22.0594 C   0  0  0  0  0  0  0  0  0  0  0  0
   15.0023   -6.7190   21.5248 C   0  0  0  0  0  0  0  0  0  0  0  0
   16.3549   -6.5057   21.6719 N   0  0  0  0  0  0  0  0  0  0  0  0
   16.7367   -5.3739   20.9995 C   0  0  0  0  0  0  0  0  0  0  0  0
   15.6177   -4.8383   20.4051 C   0  0  0  0  0  0  0  0  0  0  0  0
   14.5279   -5.6886   20.7206 C   0  0  0  0  0  0  0  0  0  0  0  0
   13.1656   -5.6859   20.4077 C   0  0  0  0  0  0  0  0  0  0  0  0
    7.7106   -5.1452   21.9843 H   0  0  0  0  0  0  0  0  0  0  0  0
    7.6988   -6.4800   23.1944 H   0  0  0  0  0  0  0  0  0  0  0  0
    6.5259   -5.7409   23.0394 H   0  0  0  0  0  0  0  0  0  0  0  0
    6.9708   -7.1118   19.6832 H   0  0  0  0  0  0  0  0  0  0  0  0
    5.0746   -6.8567   22.8836 H   0  0  0  0  0  0  0  0  0  0  0  0
    6.0641   -7.3204   23.1196 H   0  0  0  0  0  0  0  0  0  0  0  0
    4.2658   -9.6550   22.8853 H   0  0  0  0  0  0  0  0  0  0  0  0
    3.8188  -12.1134   22.1492 H   0  0  0  0  0  0  0  0  0  0  0  0
    0.0159  -12.9910   20.7192 H   0  0  0  0  0  0  0  0  0  0  0  0
    0.3987  -10.4911   20.3767 H   0  0  0  0  0  0  0  0  0  0  0  0
    9.7534   -8.6197   20.5397 H   0  0  0  0  0  0  0  0  0  0  0  0
   12.1302   -8.4455   22.1833 H   0  0  0  0  0  0  0  0  0  0  0  0
   14.5615   -8.4702   22.7355 H   0  0  0  0  0  0  0  0  0  0  0  0
   16.9731   -7.0955   22.2114 H   0  0  0  0  0  0  0  0  0  0  0  0
   17.7666   -5.0436   21.0105 H   0  0  0  0  0  0  0  0  0  0  0  0
   15.5854   -3.9350   19.8100 H   0  0  0  0  0  0  0  0  0  0  0  0
   12.7686   -4.8557   19.8267 H   0  0  0  0  0  0  0  0  0  0  0  0
  1  2  1  0
  2  3  1  0
  3  4  1  0
  4  5  1  0
  5  6  2  0
  5  7  1  0
  7  8  2  0
  8  9  1  0
  9 10  2  0
 10 11  1  0
  2 12  1  0
 12 13  1  0
 13 14  2  0
 13 15  1  0
 15 16  2  0
 16 17  1  0
 17 18  2  0
 18 19  1  0
 19 20  1  0
 20 21  2  0
 21 22  1  0
 22 23  2  0
 11  7  1  0
 23 15  1  0
 22 18  1  0
  1 24  1  0
  1 25  1  0
  1 26  1  0
  2 27  1  0
  3 28  1  0
  3 29  1  0
  4 30  1  0
  8 31  1  0
 10 32  1  0
 11 33  1  0
 12 34  1  0
 16 35  1  0
 17 36  1  0
 19 37  1  0
 20 38  1  0
 21 39  1  0
 23 40  1  0
M  END
>  <Energy>  (748) 
757.44851099321147

>  <compound_id>  (748) 
25217

>  <target_id>  (748) 
1

>  <reference_id>  (748) 
93

>  <inspiration_ids>  (748) 
[93, 116]

>  <energy_score>  (748) 
751.1208397930012

>  <distance_score>  (748) 
8.475252275923454

>  <path>  (748) 
/opt/xchem-fragalysis-2/maxwin/BulkDock/SCRATCH/511015/C25217-P93/C25217-P93.minimised.mol

>  <scratch_subdir>  (748) 
/opt/xchem-fragalysis-2/maxwin/BulkDock/SCRATCH/511015/C25217-P93

>  <fragmenstein_runtime>  (748) 
19.72962784767151

>  <fragmenstein_outcome>  (748) 
too moved

>  <fragmenstein_mode>  (748) 
expansion

>  <fragmenstein_error>  (748) 


$$$$
C25217-P116
     RDKit          3D

 40 42  0  0  0  0  0  0  0  0999 V2000
   11.7111   -2.8153   25.6142 C   0  0  0  0  0  0  0  0  0  0  0  0
   11.2995   -4.0604   24.8283 C   0  0  0  0  0  0  0  0  0  0  0  0
   11.3964   -5.3900   25.6380 C   0  0  0  0  0  0  0  0  0  0  0  0
   10.1062   -5.9085   26.1444 N   0  0  0  0  0  0  0  0  0  0  0  0
    9.3100   -7.0338   25.7253 C   0  0  0  0  0  0  0  0  0  0  0  0
    9.4507   -7.7909   24.8076 O   0  0  0  0  0  0  0  0  0  0  0  0
    8.1138   -7.2611   26.5532 C   0  0  0  0  0  0  0  0  0  0  0  0
    7.7264   -6.8883   27.8301 C   0  0  0  0  0  0  0  0  0  0  0  0
    6.5131   -7.4334   28.1917 N   0  0  0  0  0  0  0  0  0  0  0  0
    6.1331   -8.1294   27.1481 C   0  0  0  0  0  0  0  0  0  0  0  0
    7.0444   -8.0495   26.1347 N   0  0  0  0  0  0  0  0  0  0  0  0
   12.0314   -4.0563   23.5612 N   0  0  0  0  0  0  0  0  0  0  0  0
   13.4344   -4.0503   23.2887 C   0  0  0  0  0  0  0  0  0  0  0  0
   14.3731   -4.1273   24.0245 O   0  0  0  0  0  0  0  0  0  0  0  0
   13.7376   -3.8295   21.8400 C   0  0  0  0  0  0  0  0  0  0  0  0
   13.3782   -4.7838   20.8899 C   0  0  0  0  0  0  0  0  0  0  0  0
   13.7240   -4.6160   19.5439 C   0  0  0  0  0  0  0  0  0  0  0  0
   14.4187   -3.4623   19.1785 C   0  0  0  0  0  0  0  0  0  0  0  0
   14.8784   -3.0639   17.9452 N   0  0  0  0  0  0  0  0  0  0  0  0
   15.5176   -1.8578   18.0523 C   0  0  0  0  0  0  0  0  0  0  0  0
   15.4786   -1.4795   19.3758 C   0  0  0  0  0  0  0  0  0  0  0  0
   14.7831   -2.4859   20.1001 C   0  0  0  0  0  0  0  0  0  0  0  0
   14.4419   -2.6737   21.4566 C   0  0  0  0  0  0  0  0  0  0  0  0
   11.1065   -2.7199   26.5222 H   0  0  0  0  0  0  0  0  0  0  0  0
   12.7630   -2.8604   25.9151 H   0  0  0  0  0  0  0  0  0  0  0  0
   11.5715   -1.9067   25.0187 H   0  0  0  0  0  0  0  0  0  0  0  0
   10.2565   -3.9169   24.5685 H   0  0  0  0  0  0  0  0  0  0  0  0
   12.0508   -5.2705   26.5073 H   0  0  0  0  0  0  0  0  0  0  0  0
   11.8138   -6.1805   25.0046 H   0  0  0  0  0  0  0  0  0  0  0  0
    9.6424   -5.4453   26.9157 H   0  0  0  0  0  0  0  0  0  0  0  0
    8.2725   -6.2741   28.5341 H   0  0  0  0  0  0  0  0  0  0  0  0
    5.2194   -8.6972   27.0633 H   0  0  0  0  0  0  0  0  0  0  0  0
    6.9587   -8.4828   25.2221 H   0  0  0  0  0  0  0  0  0  0  0  0
   11.5262   -3.8882   22.6969 H   0  0  0  0  0  0  0  0  0  0  0  0
   12.8537   -5.6858   21.1931 H   0  0  0  0  0  0  0  0  0  0  0  0
   13.4773   -5.3710   18.8083 H   0  0  0  0  0  0  0  0  0  0  0  0
   14.7636   -3.6007   17.0957 H   0  0  0  0  0  0  0  0  0  0  0  0
   15.9527   -1.3808   17.1846 H   0  0  0  0  0  0  0  0  0  0  0  0
   15.9124   -0.5766   19.7854 H   0  0  0  0  0  0  0  0  0  0  0  0
   14.7333   -1.9432   22.2067 H   0  0  0  0  0  0  0  0  0  0  0  0
  1  2  1  0
  2  3  1  0
  3  4  1  0
  4  5  1  0
  5  6  2  0
  5  7  1  0
  7  8  2  0
  8  9  1  0
  9 10  2  0
 10 11  1  0
  2 12  1  0
 12 13  1  0
 13 14  2  0
 13 15  1  0
 15 16  2  0
 16 17  1  0
 17 18  2  0
 18 19  1  0
 19 20  1  0
 20 21  2  0
 21 22  1  0
 22 23  2  0
 11  7  1  0
 23 15  1  0
 22 18  1  0
  1 24  1  0
  1 25  1  0
  1 26  1  0
  2 27  1  0
  3 28  1  0
  3 29  1  0
  4 30  1  0
  8 31  1  0
 10 32  1  0
 11 33  1  0
 12 34  1  0
 16 35  1  0
 17 36  1  0
 19 37  1  0
 20 38  1  0
 21 39  1  0
 23 40  1  0
M  END
>  <Energy>  (749) 
-2.1568706502588775

>  <compound_id>  (749) 
25217

>  <target_id>  (749) 
1

>  <reference_id>  (749) 
116

>  <inspiration_ids>  (749) 
[93, 116]

>  <energy_score>  (749) 
-8.48454185046711

>  <distance_score>  (749) 
8.364853746114777

>  <path>  (749) 
/opt/xchem-fragalysis-2/maxwin/BulkDock/SCRATCH/511015/C25217-P116/C25217-P116.minimised.mol

>  <scratch_subdir>  (749) 
/opt/xchem-fragalysis-2/maxwin/BulkDock/SCRATCH/511015/C25217-P116

>  <fragmenstein_runtime>  (749) 
14.499150037765503

>  <fragmenstein_outcome>  (749) 
too moved

>  <fragmenstein_mode>  (749) 
expansion

>  <fragmenstein_error>  (749) 


$$$$
C25218-P93
     RDKit          3D

 41 43  0  0  0  0  0  0  0  0999 V2000
   12.8632   -3.7319   18.9848 O   0  0  0  0  0  0  0  0  0  0  0  0
   12.6210   -3.8980   20.1621 C   0  0  0  0  0  0  0  0  0  0  0  0
   11.3201   -3.7731   20.9253 N   0  0  0  0  0  0  0  0  0  0  0  0
    9.4682   -3.1438   20.3168 C   0  0  0  0  0  0  0  0  0  0  0  0
    8.5105   -1.3924   19.3544 C   0  0  0  0  0  0  0  0  0  0  0  0
    7.3949   -0.2857   18.7099 C   0  0  0  0  0  0  0  0  0  0  0  0
    8.0268    0.4404   17.6099 O   0  0  0  0  0  0  0  0  0  0  0  0
    7.7374   -1.7386   20.6444 N   0  0  0  0  0  0  0  0  0  0  0  0
    7.5357   -3.4149   21.5665 C   0  0  0  0  0  0  0  0  0  0  0  0
    7.9624   -4.4398   21.1204 O   0  0  0  0  0  0  0  0  0  0  0  0
    6.7760   -3.5237   23.3723 C   0  0  0  0  0  0  0  0  0  0  0  0
    5.6183   -2.3894   24.0404 C   0  0  0  0  0  0  0  0  0  0  0  0
    5.7758   -1.7683   25.2969 N   0  0  0  0  0  0  0  0  0  0  0  0
    6.9835   -2.0620   25.7127 C   0  0  0  0  0  0  0  0  0  0  0  0
    7.5397   -3.1451   24.9619 N   0  0  0  0  0  0  0  0  0  0  0  0
   13.8761   -4.1628   20.9056 C   0  0  0  0  0  0  0  0  0  0  0  0
   14.0630   -3.8055   22.2328 C   0  0  0  0  0  0  0  0  0  0  0  0
   15.3601   -3.7509   22.7628 C   0  0  0  0  0  0  0  0  0  0  0  0
   16.4743   -4.0292   21.9440 C   0  0  0  0  0  0  0  0  0  0  0  0
   17.8828   -3.9729   22.1220 C   0  0  0  0  0  0  0  0  0  0  0  0
   18.4776   -4.3267   20.9311 C   0  0  0  0  0  0  0  0  0  0  0  0
   17.4827   -4.6082   20.0360 N   0  0  0  0  0  0  0  0  0  0  0  0
   16.2585   -4.4261   20.6316 C   0  0  0  0  0  0  0  0  0  0  0  0
   14.9814   -4.5299   20.0979 C   0  0  0  0  0  0  0  0  0  0  0  0
   11.4693   -4.0692   21.8940 H   0  0  0  0  0  0  0  0  0  0  0  0
   10.2262   -2.5767   20.0410 H   0  0  0  0  0  0  0  0  0  0  0  0
   10.2985   -3.1605   21.4183 H   0  0  0  0  0  0  0  0  0  0  0  0
    9.1275   -0.6815   19.7211 H   0  0  0  0  0  0  0  0  0  0  0  0
    6.5129   -0.6679   18.2038 H   0  0  0  0  0  0  0  0  0  0  0  0
    7.1033    0.4626   19.4581 H   0  0  0  0  0  0  0  0  0  0  0  0
    7.5911    0.1797   16.7740 H   0  0  0  0  0  0  0  0  0  0  0  0
    7.2500   -1.0415   21.1220 H   0  0  0  0  0  0  0  0  0  0  0  0
    4.8001   -2.0223   23.4085 H   0  0  0  0  0  0  0  0  0  0  0  0
    7.5011   -1.6783   26.5800 H   0  0  0  0  0  0  0  0  0  0  0  0
    8.5154   -3.3044   25.1032 H   0  0  0  0  0  0  0  0  0  0  0  0
   13.2421   -3.4662   22.8552 H   0  0  0  0  0  0  0  0  0  0  0  0
   15.5103   -3.4229   23.7879 H   0  0  0  0  0  0  0  0  0  0  0  0
   18.4068   -3.6882   23.0249 H   0  0  0  0  0  0  0  0  0  0  0  0
   19.5187   -4.4000   20.6470 H   0  0  0  0  0  0  0  0  0  0  0  0
   17.6208   -4.8806   19.0723 H   0  0  0  0  0  0  0  0  0  0  0  0
   14.8574   -4.7602   19.0447 H   0  0  0  0  0  0  0  0  0  0  0  0
  1  2  2  0
  2  3  1  0
  3  4  1  0
  4  5  1  0
  5  6  1  0
  6  7  1  0
  5  8  1  0
  8  9  1  0
  9 10  2  0
  9 11  1  0
 11 12  2  0
 12 13  1  0
 13 14  2  0
 14 15  1  0
  2 16  1  0
 16 17  2  0
 17 18  1  0
 18 19  2  0
 19 20  1  0
 20 21  2  0
 21 22  1  0
 22 23  1  0
 23 24  2  0
 15 11  1  0
 24 16  1  0
 23 19  1  0
  3 25  1  0
  4 26  1  0
  4 27  1  0
  5 28  1  0
  6 29  1  0
  6 30  1  0
  7 31  1  0
  8 32  1  0
 12 33  1  0
 14 34  1  0
 15 35  1  0
 17 36  1  0
 18 37  1  0
 20 38  1  0
 21 39  1  0
 22 40  1  0
 24 41  1  0
M  END
>  <Energy>  (750) 
844.66417778606876

>  <compound_id>  (750) 
25218

>  <target_id>  (750) 
1

>  <reference_id>  (750) 
93

>  <inspiration_ids>  (750) 
[93, 116]

>  <energy_score>  (750) 
798.1046909900472

>  <distance_score>  (750) 
9.464287648358363

>  <path>  (750) 
/opt/xchem-fragalysis-2/maxwin/BulkDock/SCRATCH/511015/C25218-P93/C25218-P93.minimised.mol

>  <scratch_subdir>  (750) 
/opt/xchem-fragalysis-2/maxwin/BulkDock/SCRATCH/511015/C25218-P93

>  <fragmenstein_runtime>  (750) 
14.678954124450684

>  <fragmenstein_outcome>  (750) 
too moved

>  <fragmenstein_mode>  (750) 
expansion

>  <fragmenstein_error>  (750) 


$$$$
C25218-P116
     RDKit          3D

 41 43  0  0  0  0  0  0  0  0999 V2000
   12.0970   -6.5144   22.3374 O   0  0  0  0  0  0  0  0  0  0  0  0
   12.0479   -5.3905   21.9379 C   0  0  0  0  0  0  0  0  0  0  0  0
   11.0128   -4.6877   21.2534 N   0  0  0  0  0  0  0  0  0  0  0  0
    9.6469   -5.1692   20.6961 C   0  0  0  0  0  0  0  0  0  0  0  0
    7.6400   -4.4856   20.9698 C   0  0  0  0  0  0  0  0  0  0  0  0
    6.7369   -3.0816   21.1252 C   0  0  0  0  0  0  0  0  0  0  0  0
    7.1455   -1.4576   20.5581 O   0  0  0  0  0  0  0  0  0  0  0  0
    6.8559   -4.9470   22.7268 N   0  0  0  0  0  0  0  0  0  0  0  0
    6.2699   -6.1498   23.2082 C   0  0  0  0  0  0  0  0  0  0  0  0
    6.0314   -7.1466   22.6554 O   0  0  0  0  0  0  0  0  0  0  0  0
    6.0097   -6.2036   24.6550 C   0  0  0  0  0  0  0  0  0  0  0  0
    5.9289   -5.3490   25.7333 C   0  0  0  0  0  0  0  0  0  0  0  0
    5.9674   -6.0396   26.9374 N   0  0  0  0  0  0  0  0  0  0  0  0
    6.0108   -7.3093   26.6013 C   0  0  0  0  0  0  0  0  0  0  0  0
    5.9683   -7.4534   25.2514 N   0  0  0  0  0  0  0  0  0  0  0  0
   13.2304   -4.4826   22.0092 C   0  0  0  0  0  0  0  0  0  0  0  0
   13.2333   -3.2865   22.7150 C   0  0  0  0  0  0  0  0  0  0  0  0
   14.0672   -2.2329   22.2974 C   0  0  0  0  0  0  0  0  0  0  0  0
   14.8597   -2.3711   21.1350 C   0  0  0  0  0  0  0  0  0  0  0  0
   15.7243   -1.5077   20.4042 C   0  0  0  0  0  0  0  0  0  0  0  0
   16.1961   -2.2049   19.3137 C   0  0  0  0  0  0  0  0  0  0  0  0
   15.6624   -3.4657   19.3596 N   0  0  0  0  0  0  0  0  0  0  0  0
   14.8509   -3.5895   20.4634 C   0  0  0  0  0  0  0  0  0  0  0  0
   14.0759   -4.6689   20.8896 C   0  0  0  0  0  0  0  0  0  0  0  0
   11.3514   -3.7726   20.9938 H   0  0  0  0  0  0  0  0  0  0  0  0
   10.0092   -6.1904   20.9629 H   0  0  0  0  0  0  0  0  0  0  0  0
    9.7758   -5.5186   19.6650 H   0  0  0  0  0  0  0  0  0  0  0  0
    7.0444   -4.9016   20.1025 H   0  0  0  0  0  0  0  0  0  0  0  0
    6.2172   -3.1609   22.1236 H   0  0  0  0  0  0  0  0  0  0  0  0
    5.7590   -3.0994   20.5491 H   0  0  0  0  0  0  0  0  0  0  0  0
    6.6230   -1.4778   19.7167 H   0  0  0  0  0  0  0  0  0  0  0  0
    6.8355   -4.2560   23.4624 H   0  0  0  0  0  0  0  0  0  0  0  0
    5.9145   -4.2684   25.7283 H   0  0  0  0  0  0  0  0  0  0  0  0
    6.0487   -8.1502   27.2782 H   0  0  0  0  0  0  0  0  0  0  0  0
    6.0184   -8.3018   24.6977 H   0  0  0  0  0  0  0  0  0  0  0  0
   12.5389   -3.1388   23.5380 H   0  0  0  0  0  0  0  0  0  0  0  0
   14.0592   -1.2911   22.8399 H   0  0  0  0  0  0  0  0  0  0  0  0
   15.9676   -0.4818   20.6472 H   0  0  0  0  0  0  0  0  0  0  0  0
   16.8650   -1.9160   18.5143 H   0  0  0  0  0  0  0  0  0  0  0  0
   15.8211   -4.2020   18.6834 H   0  0  0  0  0  0  0  0  0  0  0  0
   14.0122   -5.5763   20.2918 H   0  0  0  0  0  0  0  0  0  0  0  0
  1  2  2  0
  2  3  1  0
  3  4  1  0
  4  5  1  0
  5  6  1  0
  6  7  1  0
  5  8  1  0
  8  9  1  0
  9 10  2  0
  9 11  1  0
 11 12  2  0
 12 13  1  0
 13 14  2  0
 14 15  1  0
  2 16  1  0
 16 17  2  0
 17 18  1  0
 18 19  2  0
 19 20  1  0
 20 21  2  0
 21 22  1  0
 22 23  1  0
 23 24  2  0
 15 11  1  0
 24 16  1  0
 23 19  1  0
  3 25  1  0
  4 26  1  0
  4 27  1  0
  5 28  1  0
  6 29  1  0
  6 30  1  0
  7 31  1  0
  8 32  1  0
 12 33  1  0
 14 34  1  0
 15 35  1  0
 17 36  1  0
 18 37  1  0
 20 38  1  0
 21 39  1  0
 22 40  1  0
 24 41  1  0
M  END
>  <Energy>  (751) 
317.33484719525467

>  <compound_id>  (751) 
25218

>  <target_id>  (751) 
1

>  <reference_id>  (751) 
116

>  <inspiration_ids>  (751) 
[93, 116]

>  <energy_score>  (751) 
270.7753603992293

>  <distance_score>  (751) 
8.222664625652305

>  <path>  (751) 
/opt/xchem-fragalysis-2/maxwin/BulkDock/SCRATCH/511015/C25218-P116/C25218-P116.minimised.mol

>  <scratch_subdir>  (751) 
/opt/xchem-fragalysis-2/maxwin/BulkDock/SCRATCH/511015/C25218-P116

>  <fragmenstein_runtime>  (751) 
22.753019094467163

>  <fragmenstein_outcome>  (751) 
too moved

>  <fragmenstein_mode>  (751) 
expansion

>  <fragmenstein_error>  (751) 


$$$$
C25223-P93
     RDKit          3D

 43 45  0  0  0  0  0  0  0  0999 V2000
   11.3751   -5.0417   15.9271 C   0  0  0  0  0  0  0  0  0  0  0  0
   11.3218   -6.5586   15.9100 N   0  0  0  0  0  0  0  0  0  0  0  0
   12.0450   -4.7191   15.8602 C   0  0  0  0  0  0  0  0  0  0  0  0
   12.8137   -3.7955   17.1802 C   0  0  0  0  0  0  0  0  0  0  0  0
   13.9884   -2.8510   16.8530 N   0  0  0  0  0  0  0  0  0  0  0  0
   12.9129   -2.0878   16.1718 C   0  0  0  0  0  0  0  0  0  0  0  0
   14.7215   -2.5634   18.0312 C   0  0  0  0  0  0  0  0  0  0  0  0
   14.6001   -1.6766   18.8291 O   0  0  0  0  0  0  0  0  0  0  0  0
   15.7111   -3.6164   18.3026 C   0  0  0  0  0  0  0  0  0  0  0  0
   15.7073   -4.2042   19.5729 C   0  0  0  0  0  0  0  0  0  0  0  0
   16.5208   -5.2991   19.8279 C   0  0  0  0  0  0  0  0  0  0  0  0
   17.3610   -5.8165   18.8371 C   0  0  0  0  0  0  0  0  0  0  0  0
   17.3682   -5.1911   17.5844 C   0  0  0  0  0  0  0  0  0  0  0  0
   18.0928   -5.4824   16.4527 N   0  0  0  0  0  0  0  0  0  0  0  0
   17.7718   -4.6105   15.4493 C   0  0  0  0  0  0  0  0  0  0  0  0
   16.8259   -3.7392   15.9333 C   0  0  0  0  0  0  0  0  0  0  0  0
   16.5596   -4.0955   17.2857 C   0  0  0  0  0  0  0  0  0  0  0  0
    9.7427   -7.4964   15.2569 C   0  0  0  0  0  0  0  0  0  0  0  0
    8.7603   -7.1189   14.7337 O   0  0  0  0  0  0  0  0  0  0  0  0
    9.7046   -9.2795   15.3899 C   0  0  0  0  0  0  0  0  0  0  0  0
   10.4863  -10.3340   15.8573 C   0  0  0  0  0  0  0  0  0  0  0  0
    9.7451  -11.4821   16.0785 N   0  0  0  0  0  0  0  0  0  0  0  0
    8.5540  -11.2146   15.6054 C   0  0  0  0  0  0  0  0  0  0  0  0
    8.5261   -9.9721   15.0443 N   0  0  0  0  0  0  0  0  0  0  0  0
   10.4588   -4.1277   16.0256 H   0  0  0  0  0  0  0  0  0  0  0  0
   10.6460   -4.9524   14.8480 H   0  0  0  0  0  0  0  0  0  0  0  0
   10.9597   -5.1221   17.1119 H   0  0  0  0  0  0  0  0  0  0  0  0
   13.1843   -5.1578   15.7615 H   0  0  0  0  0  0  0  0  0  0  0  0
   12.1861   -4.0210   14.7853 H   0  0  0  0  0  0  0  0  0  0  0  0
   12.1251   -3.3486   17.8788 H   0  0  0  0  0  0  0  0  0  0  0  0
   13.2613   -4.5942   17.7940 H   0  0  0  0  0  0  0  0  0  0  0  0
   12.8543   -2.3272   15.1092 H   0  0  0  0  0  0  0  0  0  0  0  0
   11.9487   -1.8859   16.6503 H   0  0  0  0  0  0  0  0  0  0  0  0
   13.3370   -1.0708   16.1448 H   0  0  0  0  0  0  0  0  0  0  0  0
   15.0538   -3.8161   20.3520 H   0  0  0  0  0  0  0  0  0  0  0  0
   16.5103   -5.7597   20.8136 H   0  0  0  0  0  0  0  0  0  0  0  0
   17.9949   -6.6738   19.0448 H   0  0  0  0  0  0  0  0  0  0  0  0
   18.7673   -6.2321   16.3802 H   0  0  0  0  0  0  0  0  0  0  0  0
   18.2383   -4.6837   14.4764 H   0  0  0  0  0  0  0  0  0  0  0  0
   16.3717   -2.9321   15.3727 H   0  0  0  0  0  0  0  0  0  0  0  0
   11.5315  -10.3036   16.1165 H   0  0  0  0  0  0  0  0  0  0  0  0
    7.6965  -11.8728   15.6137 H   0  0  0  0  0  0  0  0  0  0  0  0
    7.7098   -9.4831   14.7107 H   0  0  0  0  0  0  0  0  0  0  0  0
  1  2  1  0
  2  3  1  0
  3  4  1  0
  4  5  1  0
  5  6  1  0
  5  7  1  0
  7  8  2  0
  7  9  1  0
  9 10  2  0
 10 11  1  0
 11 12  2  0
 12 13  1  0
 13 14  1  0
 14 15  1  0
 15 16  2  0
 16 17  1  0
  2 18  1  0
 18 19  2  0
 18 20  1  0
 20 21  2  0
 21 22  1  0
 22 23  2  0
 23 24  1  0
 17  9  1  0
 24 20  1  0
 17 13  2  0
  1 25  1  0
  1 26  1  0
  1 27  1  0
  3 28  1  0
  3 29  1  0
  4 30  1  0
  4 31  1  0
  6 32  1  0
  6 33  1  0
  6 34  1  0
 10 35  1  0
 11 36  1  0
 12 37  1  0
 14 38  1  0
 15 39  1  0
 16 40  1  0
 21 41  1  0
 23 42  1  0
 24 43  1  0
M  END
>  <Energy>  (752) 
948.7227647705738

>  <compound_id>  (752) 
25223

>  <target_id>  (752) 
1

>  <reference_id>  (752) 
93

>  <inspiration_ids>  (752) 
[93, 116]

>  <energy_score>  (752) 
908.1634607202258

>  <distance_score>  (752) 
10.466886950224835

>  <path>  (752) 
/opt/xchem-fragalysis-2/maxwin/BulkDock/SCRATCH/511015/C25223-P93/C25223-P93.minimised.mol

>  <scratch_subdir>  (752) 
/opt/xchem-fragalysis-2/maxwin/BulkDock/SCRATCH/511015/C25223-P93

>  <fragmenstein_runtime>  (752) 
15.626042366027832

>  <fragmenstein_outcome>  (752) 
too moved

>  <fragmenstein_mode>  (752) 
expansion

>  <fragmenstein_error>  (752) 


$$$$
C25223-P116
     RDKit          3D

 43 45  0  0  0  0  0  0  0  0999 V2000
   11.7639   -8.3716   23.3984 C   0  0  0  0  0  0  0  0  0  0  0  0
   10.7965   -8.5261   24.2188 N   0  0  0  0  0  0  0  0  0  0  0  0
   12.4896   -8.0535   23.2591 C   0  0  0  0  0  0  0  0  0  0  0  0
   13.2438   -6.6868   24.0911 C   0  0  0  0  0  0  0  0  0  0  0  0
   12.7056   -5.3000   23.6809 N   0  0  0  0  0  0  0  0  0  0  0  0
   11.9817   -5.4390   24.9703 C   0  0  0  0  0  0  0  0  0  0  0  0
   13.7936   -4.4350   23.3040 C   0  0  0  0  0  0  0  0  0  0  0  0
   14.4483   -3.6722   23.9642 O   0  0  0  0  0  0  0  0  0  0  0  0
   14.0886   -4.4132   21.8156 C   0  0  0  0  0  0  0  0  0  0  0  0
   13.0946   -4.7256   20.8734 C   0  0  0  0  0  0  0  0  0  0  0  0
   13.3208   -4.5770   19.5014 C   0  0  0  0  0  0  0  0  0  0  0  0
   14.5340   -4.1330   18.9962 C   0  0  0  0  0  0  0  0  0  0  0  0
   15.5150   -3.8066   19.9250 C   0  0  0  0  0  0  0  0  0  0  0  0
   16.7828   -3.3215   19.7022 N   0  0  0  0  0  0  0  0  0  0  0  0
   17.4140   -3.0932   20.8896 C   0  0  0  0  0  0  0  0  0  0  0  0
   16.5460   -3.4502   21.8956 C   0  0  0  0  0  0  0  0  0  0  0  0
   15.3294   -3.9199   21.3102 C   0  0  0  0  0  0  0  0  0  0  0  0
   10.5256   -9.5827   25.1690 C   0  0  0  0  0  0  0  0  0  0  0  0
   11.1923  -10.5061   25.5203 O   0  0  0  0  0  0  0  0  0  0  0  0
    9.1561   -9.5221   25.6928 C   0  0  0  0  0  0  0  0  0  0  0  0
    8.1821   -8.5432   25.7907 C   0  0  0  0  0  0  0  0  0  0  0  0
    7.0335   -9.0150   26.3919 N   0  0  0  0  0  0  0  0  0  0  0  0
    7.2719  -10.2763   26.6524 C   0  0  0  0  0  0  0  0  0  0  0  0
    8.5339  -10.6222   26.2710 N   0  0  0  0  0  0  0  0  0  0  0  0
   10.8953   -7.5693   22.8898 H   0  0  0  0  0  0  0  0  0  0  0  0
   11.2659   -8.9173   22.3123 H   0  0  0  0  0  0  0  0  0  0  0  0
   11.8721   -9.6605   23.4199 H   0  0  0  0  0  0  0  0  0  0  0  0
   13.4654   -8.8217   23.4309 H   0  0  0  0  0  0  0  0  0  0  0  0
   12.5877   -7.5840   22.0815 H   0  0  0  0  0  0  0  0  0  0  0  0
   14.2610   -6.7212   23.6654 H   0  0  0  0  0  0  0  0  0  0  0  0
   13.4293   -6.9466   25.1503 H   0  0  0  0  0  0  0  0  0  0  0  0
   11.2693   -6.2621   25.0598 H   0  0  0  0  0  0  0  0  0  0  0  0
   11.3445   -4.5426   24.9939 H   0  0  0  0  0  0  0  0  0  0  0  0
   12.6285   -5.2898   25.8486 H   0  0  0  0  0  0  0  0  0  0  0  0
   12.1067   -5.0345   21.2039 H   0  0  0  0  0  0  0  0  0  0  0  0
   12.5268   -4.7853   18.7950 H   0  0  0  0  0  0  0  0  0  0  0  0
   14.6904   -4.0377   17.9271 H   0  0  0  0  0  0  0  0  0  0  0  0
   17.1747   -3.1458   18.7877 H   0  0  0  0  0  0  0  0  0  0  0  0
   18.4187   -2.6947   20.9236 H   0  0  0  0  0  0  0  0  0  0  0  0
   16.7549   -3.3761   22.9559 H   0  0  0  0  0  0  0  0  0  0  0  0
    8.2447   -7.5093   25.4785 H   0  0  0  0  0  0  0  0  0  0  0  0
    6.5889  -10.9748   27.1166 H   0  0  0  0  0  0  0  0  0  0  0  0
    8.9675  -11.5285   26.3816 H   0  0  0  0  0  0  0  0  0  0  0  0
  1  2  1  0
  2  3  1  0
  3  4  1  0
  4  5  1  0
  5  6  1  0
  5  7  1  0
  7  8  2  0
  7  9  1  0
  9 10  2  0
 10 11  1  0
 11 12  2  0
 12 13  1  0
 13 14  1  0
 14 15  1  0
 15 16  2  0
 16 17  1  0
  2 18  1  0
 18 19  2  0
 18 20  1  0
 20 21  2  0
 21 22  1  0
 22 23  2  0
 23 24  1  0
 17  9  1  0
 24 20  1  0
 17 13  2  0
  1 25  1  0
  1 26  1  0
  1 27  1  0
  3 28  1  0
  3 29  1  0
  4 30  1  0
  4 31  1  0
  6 32  1  0
  6 33  1  0
  6 34  1  0
 10 35  1  0
 11 36  1  0
 12 37  1  0
 14 38  1  0
 15 39  1  0
 16 40  1  0
 21 41  1  0
 23 42  1  0
 24 43  1  0
M  END
>  <Energy>  (753) 
889.54941521237834

>  <compound_id>  (753) 
25223

>  <target_id>  (753) 
1

>  <reference_id>  (753) 
116

>  <inspiration_ids>  (753) 
[93, 116]

>  <energy_score>  (753) 
848.9901111620381

>  <distance_score>  (753) 
8.628960493185017

>  <path>  (753) 
/opt/xchem-fragalysis-2/maxwin/BulkDock/SCRATCH/511015/C25223-P116/C25223-P116.minimised.mol

>  <scratch_subdir>  (753) 
/opt/xchem-fragalysis-2/maxwin/BulkDock/SCRATCH/511015/C25223-P116

>  <fragmenstein_runtime>  (753) 
21.27765202522278

>  <fragmenstein_outcome>  (753) 
too moved

>  <fragmenstein_mode>  (753) 
expansion

>  <fragmenstein_error>  (753) 


$$$$
C25224-P93
     RDKit          3D

 46 48  0  0  0  0  0  0  0  0999 V2000
    8.5440   -1.6920   19.2672 C   0  0  0  0  0  0  0  0  0  0  0  0
    8.7200   -3.9300   19.8491 C   0  0  0  0  0  0  0  0  0  0  0  0
    7.8868   -4.5700   21.4450 N   0  0  0  0  0  0  0  0  0  0  0  0
    7.0860   -6.1499   21.8262 C   0  0  0  0  0  0  0  0  0  0  0  0
    6.8430   -7.1047   21.0720 O   0  0  0  0  0  0  0  0  0  0  0  0
    6.7170   -6.4961   23.3512 C   0  0  0  0  0  0  0  0  0  0  0  0
    7.3566   -7.8562   24.4324 C   0  0  0  0  0  0  0  0  0  0  0  0
    8.5588   -8.1584   25.1401 C   0  0  0  0  0  0  0  0  0  0  0  0
    8.3747   -9.0627   26.1465 N   0  0  0  0  0  0  0  0  0  0  0  0
    7.0968   -9.3125   26.1518 C   0  0  0  0  0  0  0  0  0  0  0  0
    6.4600   -8.5972   25.1923 N   0  0  0  0  0  0  0  0  0  0  0  0
   10.1849   -5.4511   19.5050 C   0  0  0  0  0  0  0  0  0  0  0  0
   11.3084   -4.8934   17.9091 C   0  0  0  0  0  0  0  0  0  0  0  0
   11.7635   -5.0210   20.4124 N   0  0  0  0  0  0  0  0  0  0  0  0
   12.7113   -5.8453   21.1166 C   0  0  0  0  0  0  0  0  0  0  0  0
   12.6926   -7.0135   21.3736 O   0  0  0  0  0  0  0  0  0  0  0  0
   13.9057   -4.9997   21.4412 C   0  0  0  0  0  0  0  0  0  0  0  0
   13.7439   -3.8375   22.1996 C   0  0  0  0  0  0  0  0  0  0  0  0
   14.6843   -2.8112   22.1503 C   0  0  0  0  0  0  0  0  0  0  0  0
   15.8178   -2.9167   21.3423 C   0  0  0  0  0  0  0  0  0  0  0  0
   16.0462   -4.1068   20.6318 C   0  0  0  0  0  0  0  0  0  0  0  0
   17.0779   -4.5399   19.7567 C   0  0  0  0  0  0  0  0  0  0  0  0
   16.7901   -5.8315   19.3884 C   0  0  0  0  0  0  0  0  0  0  0  0
   15.6225   -6.1953   20.0065 N   0  0  0  0  0  0  0  0  0  0  0  0
   15.1073   -5.1403   20.7219 C   0  0  0  0  0  0  0  0  0  0  0  0
    9.1367   -0.8683   19.6600 H   0  0  0  0  0  0  0  0  0  0  0  0
    7.6419   -1.1756   19.8800 H   0  0  0  0  0  0  0  0  0  0  0  0
    8.4205   -0.9252   18.4461 H   0  0  0  0  0  0  0  0  0  0  0  0
    9.3092   -3.2770   20.4141 H   0  0  0  0  0  0  0  0  0  0  0  0
    7.8610   -3.9832   22.2360 H   0  0  0  0  0  0  0  0  0  0  0  0
    6.9265   -5.4859   23.6254 H   0  0  0  0  0  0  0  0  0  0  0  0
    5.6578   -6.7077   23.4602 H   0  0  0  0  0  0  0  0  0  0  0  0
    9.5348   -7.6944   25.0283 H   0  0  0  0  0  0  0  0  0  0  0  0
    6.6054   -9.9909   26.8359 H   0  0  0  0  0  0  0  0  0  0  0  0
    5.4960   -8.6219   24.9227 H   0  0  0  0  0  0  0  0  0  0  0  0
   10.2503   -6.1028   20.3175 H   0  0  0  0  0  0  0  0  0  0  0  0
   12.3744   -4.8833   18.2353 H   0  0  0  0  0  0  0  0  0  0  0  0
   11.2144   -5.4743   16.9799 H   0  0  0  0  0  0  0  0  0  0  0  0
   11.3040   -3.9003   17.4377 H   0  0  0  0  0  0  0  0  0  0  0  0
   12.0673   -4.0565   20.4540 H   0  0  0  0  0  0  0  0  0  0  0  0
   12.8370   -3.6987   22.7856 H   0  0  0  0  0  0  0  0  0  0  0  0
   14.5095   -1.9001   22.7193 H   0  0  0  0  0  0  0  0  0  0  0  0
   16.5289   -2.0971   21.2909 H   0  0  0  0  0  0  0  0  0  0  0  0
   17.9506   -3.9758   19.4549 H   0  0  0  0  0  0  0  0  0  0  0  0
   17.3264   -6.5363   18.7666 H   0  0  0  0  0  0  0  0  0  0  0  0
   15.2189   -7.1235   19.9761 H   0  0  0  0  0  0  0  0  0  0  0  0
  1  2  1  0
  2  3  1  0
  3  4  1  0
  4  5  2  0
  4  6  1  0
  6  7  1  0
  7  8  2  0
  8  9  1  0
  9 10  2  0
 10 11  1  0
  2 12  1  0
 12 13  1  0
 12 14  1  0
 14 15  1  0
 15 16  2  0
 15 17  1  0
 17 18  2  0
 18 19  1  0
 19 20  2  0
 20 21  1  0
 21 22  1  0
 22 23  2  0
 23 24  1  0
 24 25  1  0
 11  7  1  0
 25 17  1  0
 25 21  2  0
  1 26  1  0
  1 27  1  0
  1 28  1  0
  2 29  1  0
  3 30  1  0
  6 31  1  0
  6 32  1  0
  8 33  1  0
 10 34  1  0
 11 35  1  0
 12 36  1  0
 13 37  1  0
 13 38  1  0
 13 39  1  0
 14 40  1  0
 18 41  1  0
 19 42  1  0
 20 43  1  0
 22 44  1  0
 23 45  1  0
 24 46  1  0
M  END
>  <Energy>  (754) 
730.14350238999657

>  <compound_id>  (754) 
25224

>  <target_id>  (754) 
1

>  <reference_id>  (754) 
93

>  <inspiration_ids>  (754) 
[93, 116]

>  <energy_score>  (754) 
642.8284630991367

>  <distance_score>  (754) 
8.218859483800111

>  <path>  (754) 
/opt/xchem-fragalysis-2/maxwin/BulkDock/SCRATCH/511015/C25224-P93/C25224-P93.minimised.mol

>  <scratch_subdir>  (754) 
/opt/xchem-fragalysis-2/maxwin/BulkDock/SCRATCH/511015/C25224-P93

>  <fragmenstein_runtime>  (754) 
25.67708921432495

>  <fragmenstein_outcome>  (754) 
too moved

>  <fragmenstein_mode>  (754) 
expansion

>  <fragmenstein_error>  (754) 


$$$$
C25224-P116
     RDKit          3D

 46 48  0  0  0  0  0  0  0  0999 V2000
   -0.3776    0.0966   17.6274 C   0  0  0  0  0  0  0  0  0  0  0  0
    0.7383   -0.9505   17.4952 C   0  0  0  0  0  0  0  0  0  0  0  0
    0.1711   -2.2765   17.8392 N   0  0  0  0  0  0  0  0  0  0  0  0
   -0.4211   -2.7724   19.0831 C   0  0  0  0  0  0  0  0  0  0  0  0
   -0.6683   -2.2052   20.1123 O   0  0  0  0  0  0  0  0  0  0  0  0
   -0.7612   -4.2839   18.9385 C   0  0  0  0  0  0  0  0  0  0  0  0
   -0.7762   -5.0917   20.2186 C   0  0  0  0  0  0  0  0  0  0  0  0
   -0.5686   -6.4404   20.4401 C   0  0  0  0  0  0  0  0  0  0  0  0
   -0.7514   -6.7642   21.7569 N   0  0  0  0  0  0  0  0  0  0  0  0
   -1.0711   -5.6400   22.3511 C   0  0  0  0  0  0  0  0  0  0  0  0
   -1.0749   -4.5972   21.4688 N   0  0  0  0  0  0  0  0  0  0  0  0
    1.4192   -0.8146   16.0765 C   0  0  0  0  0  0  0  0  0  0  0  0
    0.8698   -1.8004   15.0440 C   0  0  0  0  0  0  0  0  0  0  0  0
    2.8934   -0.7875   15.9816 N   0  0  0  0  0  0  0  0  0  0  0  0
    3.8542    0.1990   16.4232 C   0  0  0  0  0  0  0  0  0  0  0  0
    3.7049    1.2084   17.0508 O   0  0  0  0  0  0  0  0  0  0  0  0
    5.2736   -0.0434   15.9132 C   0  0  0  0  0  0  0  0  0  0  0  0
    5.5081   -0.6088   14.6412 C   0  0  0  0  0  0  0  0  0  0  0  0
    6.7948   -0.7405   14.1134 C   0  0  0  0  0  0  0  0  0  0  0  0
    7.9087   -0.2653   14.8061 C   0  0  0  0  0  0  0  0  0  0  0  0
    7.7262    0.3535   16.0482 C   0  0  0  0  0  0  0  0  0  0  0  0
    8.6202    0.9830   16.9548 C   0  0  0  0  0  0  0  0  0  0  0  0
    7.8873    1.3608   18.0519 C   0  0  0  0  0  0  0  0  0  0  0  0
    6.5775    1.0273   17.8194 N   0  0  0  0  0  0  0  0  0  0  0  0
    6.4318    0.4339   16.5826 C   0  0  0  0  0  0  0  0  0  0  0  0
   -0.8208    0.0809   18.6285 H   0  0  0  0  0  0  0  0  0  0  0  0
    0.0090    1.1071   17.4577 H   0  0  0  0  0  0  0  0  0  0  0  0
   -1.1813   -0.0918   16.9071 H   0  0  0  0  0  0  0  0  0  0  0  0
    1.4752   -0.7178   18.2682 H   0  0  0  0  0  0  0  0  0  0  0  0
    0.1561   -3.0157   17.1477 H   0  0  0  0  0  0  0  0  0  0  0  0
   -1.7518   -4.3462   18.4725 H   0  0  0  0  0  0  0  0  0  0  0  0
   -0.0423   -4.7504   18.2575 H   0  0  0  0  0  0  0  0  0  0  0  0
   -0.3090   -7.1968   19.7106 H   0  0  0  0  0  0  0  0  0  0  0  0
   -1.3038   -5.5165   23.4000 H   0  0  0  0  0  0  0  0  0  0  0  0
   -1.2553   -3.6224   21.6823 H   0  0  0  0  0  0  0  0  0  0  0  0
    1.1607    0.1891   15.7126 H   0  0  0  0  0  0  0  0  0  0  0  0
    1.2124   -2.8212   15.2447 H   0  0  0  0  0  0  0  0  0  0  0  0
    1.2213   -1.5385   14.0393 H   0  0  0  0  0  0  0  0  0  0  0  0
   -0.2245   -1.7904   15.0258 H   0  0  0  0  0  0  0  0  0  0  0  0
    3.3867   -1.5566   15.5442 H   0  0  0  0  0  0  0  0  0  0  0  0
    4.6761   -0.9193   14.0138 H   0  0  0  0  0  0  0  0  0  0  0  0
    6.9298   -1.1750   13.1260 H   0  0  0  0  0  0  0  0  0  0  0  0
    8.9006   -0.3370   14.3717 H   0  0  0  0  0  0  0  0  0  0  0  0
    9.6772    1.1518   16.8073 H   0  0  0  0  0  0  0  0  0  0  0  0
    8.1665    1.8705   18.9646 H   0  0  0  0  0  0  0  0  0  0  0  0
    5.8058    1.1704   18.4598 H   0  0  0  0  0  0  0  0  0  0  0  0
  1  2  1  0
  2  3  1  0
  3  4  1  0
  4  5  2  0
  4  6  1  0
  6  7  1  0
  7  8  2  0
  8  9  1  0
  9 10  2  0
 10 11  1  0
  2 12  1  0
 12 13  1  0
 12 14  1  0
 14 15  1  0
 15 16  2  0
 15 17  1  0
 17 18  2  0
 18 19  1  0
 19 20  2  0
 20 21  1  0
 21 22  1  0
 22 23  2  0
 23 24  1  0
 24 25  1  0
 11  7  1  0
 25 17  1  0
 25 21  2  0
  1 26  1  0
  1 27  1  0
  1 28  1  0
  2 29  1  0
  3 30  1  0
  6 31  1  0
  6 32  1  0
  8 33  1  0
 10 34  1  0
 11 35  1  0
 12 36  1  0
 13 37  1  0
 13 38  1  0
 13 39  1  0
 14 40  1  0
 18 41  1  0
 19 42  1  0
 20 43  1  0
 22 44  1  0
 23 45  1  0
 24 46  1  0
M  END
>  <Energy>  (755) 
55.84503928397303

>  <compound_id>  (755) 
25224

>  <target_id>  (755) 
1

>  <reference_id>  (755) 
116

>  <inspiration_ids>  (755) 
[93, 116]

>  <energy_score>  (755) 
-31.470000006879843

>  <distance_score>  (755) 
9.835695659559473

>  <path>  (755) 
/opt/xchem-fragalysis-2/maxwin/BulkDock/SCRATCH/511015/C25224-P116/C25224-P116.minimised.mol

>  <scratch_subdir>  (755) 
/opt/xchem-fragalysis-2/maxwin/BulkDock/SCRATCH/511015/C25224-P116

>  <fragmenstein_runtime>  (755) 
24.261911630630493

>  <fragmenstein_outcome>  (755) 
too moved

>  <fragmenstein_mode>  (755) 
expansion

>  <fragmenstein_error>  (755) 


$$$$
C25225-P93
     RDKit          3D

 40 43  0  0  0  0  0  0  0  0999 V2000
   11.6135   -8.6022   27.9010 O   0  0  0  0  0  0  0  0  0  0  0  0
   10.9734   -8.2454   26.9511 C   0  0  0  0  0  0  0  0  0  0  0  0
    9.8676   -9.0994   26.5165 C   0  0  0  0  0  0  0  0  0  0  0  0
    9.4277  -10.3182   27.0149 C   0  0  0  0  0  0  0  0  0  0  0  0
    8.2092  -10.6833   26.4848 N   0  0  0  0  0  0  0  0  0  0  0  0
    7.8982   -9.7134   25.6628 C   0  0  0  0  0  0  0  0  0  0  0  0
    8.8551   -8.7442   25.6636 N   0  0  0  0  0  0  0  0  0  0  0  0
   11.0386   -7.0292   26.1845 N   0  0  0  0  0  0  0  0  0  0  0  0
   11.8343   -5.7955   26.3963 C   0  0  0  0  0  0  0  0  0  0  0  0
   13.3476   -5.7726   26.5931 C   0  0  0  0  0  0  0  0  0  0  0  0
   13.9460   -5.5680   25.2210 C   0  0  0  0  0  0  0  0  0  0  0  0
   12.9220   -6.0793   24.1960 C   0  0  0  0  0  0  0  0  0  0  0  0
   13.6731   -6.4440   22.9168 C   0  0  0  0  0  0  0  0  0  0  0  0
   14.3176   -7.6306   22.6248 C   0  0  0  0  0  0  0  0  0  0  0  0
   15.0674   -7.4602   21.4873 N   0  0  0  0  0  0  0  0  0  0  0  0
   14.9101   -6.1880   20.9939 C   0  0  0  0  0  0  0  0  0  0  0  0
   15.5119   -5.5677   19.8889 C   0  0  0  0  0  0  0  0  0  0  0  0
   15.1432   -4.2558   19.5901 C   0  0  0  0  0  0  0  0  0  0  0  0
   14.2445   -3.5802   20.4036 C   0  0  0  0  0  0  0  0  0  0  0  0
   13.6833   -4.2051   21.5266 C   0  0  0  0  0  0  0  0  0  0  0  0
   14.0049   -5.5411   21.8326 C   0  0  0  0  0  0  0  0  0  0  0  0
   12.0707   -7.2085   24.9420 C   0  0  0  0  0  0  0  0  0  0  0  0
    9.9156  -10.9271   27.7670 H   0  0  0  0  0  0  0  0  0  0  0  0
    7.0116   -9.6544   25.0504 H   0  0  0  0  0  0  0  0  0  0  0  0
    8.8325   -7.8596   25.1880 H   0  0  0  0  0  0  0  0  0  0  0  0
   11.4652   -5.5077   27.3945 H   0  0  0  0  0  0  0  0  0  0  0  0
   11.4295   -4.9756   25.7841 H   0  0  0  0  0  0  0  0  0  0  0  0
   13.7041   -6.6994   27.0568 H   0  0  0  0  0  0  0  0  0  0  0  0
   13.6462   -4.9452   27.2467 H   0  0  0  0  0  0  0  0  0  0  0  0
   14.1503   -4.5057   25.0380 H   0  0  0  0  0  0  0  0  0  0  0  0
   14.9092   -6.0890   25.1616 H   0  0  0  0  0  0  0  0  0  0  0  0
   12.2361   -5.2675   23.9216 H   0  0  0  0  0  0  0  0  0  0  0  0
   14.3753   -8.5644   23.1692 H   0  0  0  0  0  0  0  0  0  0  0  0
   15.6763   -8.1583   21.0806 H   0  0  0  0  0  0  0  0  0  0  0  0
   16.2462   -6.0893   19.2823 H   0  0  0  0  0  0  0  0  0  0  0  0
   15.5901   -3.7482   18.7389 H   0  0  0  0  0  0  0  0  0  0  0  0
   14.0049   -2.5419   20.2008 H   0  0  0  0  0  0  0  0  0  0  0  0
   13.0165   -3.6533   22.1794 H   0  0  0  0  0  0  0  0  0  0  0  0
   11.4307   -7.6783   24.1816 H   0  0  0  0  0  0  0  0  0  0  0  0
   12.7561   -8.0200   25.2390 H   0  0  0  0  0  0  0  0  0  0  0  0
  1  2  2  0
  2  3  1  0
  3  4  2  0
  4  5  1  0
  5  6  2  0
  6  7  1  0
  2  8  1  0
  8  9  1  0
  9 10  1  0
 10 11  1  0
 11 12  1  0
 12 13  1  0
 13 14  2  0
 14 15  1  0
 15 16  1  0
 16 17  2  0
 17 18  1  0
 18 19  2  0
 19 20  1  0
 20 21  2  0
 12 22  1  0
  7  3  1  0
 22  8  1  0
 21 13  1  0
 21 16  1  0
  4 23  1  0
  6 24  1  0
  7 25  1  0
  9 26  1  0
  9 27  1  0
 10 28  1  0
 10 29  1  0
 11 30  1  0
 11 31  1  0
 12 32  1  0
 14 33  1  0
 15 34  1  0
 17 35  1  0
 18 36  1  0
 19 37  1  0
 20 38  1  0
 22 39  1  0
 22 40  1  0
M  END
>  <Energy>  (756) 
92.638291437661223

>  <compound_id>  (756) 
25225

>  <target_id>  (756) 
1

>  <reference_id>  (756) 
93

>  <inspiration_ids>  (756) 
[93, 116]

>  <energy_score>  (756) 
56.74809866373778

>  <distance_score>  (756) 
8.565022989240852

>  <path>  (756) 
/opt/xchem-fragalysis-2/maxwin/BulkDock/SCRATCH/511015/C25225-P93/C25225-P93.minimised.mol

>  <scratch_subdir>  (756) 
/opt/xchem-fragalysis-2/maxwin/BulkDock/SCRATCH/511015/C25225-P93

>  <fragmenstein_runtime>  (756) 
14.490391969680786

>  <fragmenstein_outcome>  (756) 
too moved

>  <fragmenstein_mode>  (756) 
expansion

>  <fragmenstein_error>  (756) 


$$$$
C25225-P116
     RDKit          3D

 40 43  0  0  0  0  0  0  0  0999 V2000
    6.3478   -9.4521   26.1674 O   0  0  0  0  0  0  0  0  0  0  0  0
    7.1376   -9.2862   25.2791 C   0  0  0  0  0  0  0  0  0  0  0  0
    7.6684  -10.5457   24.8273 C   0  0  0  0  0  0  0  0  0  0  0  0
    8.9490  -11.0381   24.9076 C   0  0  0  0  0  0  0  0  0  0  0  0
    8.9711  -12.3983   24.7330 N   0  0  0  0  0  0  0  0  0  0  0  0
    7.7167  -12.7578   24.5929 C   0  0  0  0  0  0  0  0  0  0  0  0
    6.8928  -11.6800   24.6635 N   0  0  0  0  0  0  0  0  0  0  0  0
    7.6662   -8.0693   24.7152 N   0  0  0  0  0  0  0  0  0  0  0  0
    7.4829   -6.6740   25.1306 C   0  0  0  0  0  0  0  0  0  0  0  0
    6.4302   -5.7757   24.5412 C   0  0  0  0  0  0  0  0  0  0  0  0
    6.5801   -5.9359   22.7491 C   0  0  0  0  0  0  0  0  0  0  0  0
    7.0120   -7.2662   21.2877 C   0  0  0  0  0  0  0  0  0  0  0  0
    9.1578   -7.6097   20.5458 C   0  0  0  0  0  0  0  0  0  0  0  0
   10.2810   -8.4890   21.2416 C   0  0  0  0  0  0  0  0  0  0  0  0
   10.7511   -8.2007   22.5412 N   0  0  0  0  0  0  0  0  0  0  0  0
   11.3850   -7.0431   22.2875 C   0  0  0  0  0  0  0  0  0  0  0  0
   12.5036   -6.4807   22.9358 C   0  0  0  0  0  0  0  0  0  0  0  0
   13.1155   -5.3790   22.3688 C   0  0  0  0  0  0  0  0  0  0  0  0
   12.6762   -4.9643   21.1449 C   0  0  0  0  0  0  0  0  0  0  0  0
   11.5471   -5.5883   20.5776 C   0  0  0  0  0  0  0  0  0  0  0  0
   10.6400   -6.5474   21.1687 C   0  0  0  0  0  0  0  0  0  0  0  0
    6.6506   -7.5123   23.3333 C   0  0  0  0  0  0  0  0  0  0  0  0
    9.8511  -10.4939   25.1494 H   0  0  0  0  0  0  0  0  0  0  0  0
    7.3555  -13.7681   24.4583 H   0  0  0  0  0  0  0  0  0  0  0  0
    5.8865  -11.7150   24.7121 H   0  0  0  0  0  0  0  0  0  0  0  0
    8.4760   -6.2432   25.3336 H   0  0  0  0  0  0  0  0  0  0  0  0
    7.1414   -6.7896   26.1732 H   0  0  0  0  0  0  0  0  0  0  0  0
    5.4182   -6.0763   24.8686 H   0  0  0  0  0  0  0  0  0  0  0  0
    6.4258   -4.7578   24.9026 H   0  0  0  0  0  0  0  0  0  0  0  0
    6.8761   -4.9322   22.5123 H   0  0  0  0  0  0  0  0  0  0  0  0
    5.5373   -6.0466   22.9341 H   0  0  0  0  0  0  0  0  0  0  0  0
    6.4256   -7.5279   20.4391 H   0  0  0  0  0  0  0  0  0  0  0  0
   11.0803   -9.0579   20.8758 H   0  0  0  0  0  0  0  0  0  0  0  0
   11.1700   -8.8974   23.1420 H   0  0  0  0  0  0  0  0  0  0  0  0
   12.9126   -6.9302   23.8364 H   0  0  0  0  0  0  0  0  0  0  0  0
   13.9886   -4.9291   22.8301 H   0  0  0  0  0  0  0  0  0  0  0  0
   13.2199   -4.2150   20.5780 H   0  0  0  0  0  0  0  0  0  0  0  0
   11.4712   -5.3840   19.5260 H   0  0  0  0  0  0  0  0  0  0  0  0
    5.8069   -7.7361   24.0982 H   0  0  0  0  0  0  0  0  0  0  0  0
    5.4779   -7.5596   23.0904 H   0  0  0  0  0  0  0  0  0  0  0  0
  1  2  2  0
  2  3  1  0
  3  4  2  0
  4  5  1  0
  5  6  2  0
  6  7  1  0
  2  8  1  0
  8  9  1  0
  9 10  1  0
 10 11  1  0
 11 12  1  0
 12 13  1  0
 13 14  2  0
 14 15  1  0
 15 16  1  0
 16 17  2  0
 17 18  1  0
 18 19  2  0
 19 20  1  0
 20 21  2  0
 12 22  1  0
  7  3  1  0
 22  8  1  0
 21 13  1  0
 21 16  1  0
  4 23  1  0
  6 24  1  0
  7 25  1  0
  9 26  1  0
  9 27  1  0
 10 28  1  0
 10 29  1  0
 11 30  1  0
 11 31  1  0
 12 32  1  0
 14 33  1  0
 15 34  1  0
 17 35  1  0
 18 36  1  0
 19 37  1  0
 20 38  1  0
 22 39  1  0
 22 40  1  0
M  END
>  <Energy>  (757) 
944.96900860877156

>  <compound_id>  (757) 
25225

>  <target_id>  (757) 
1

>  <reference_id>  (757) 
116

>  <inspiration_ids>  (757) 
[93, 116]

>  <energy_score>  (757) 
909.0788158348425

>  <distance_score>  (757) 
8.659323304466767

>  <path>  (757) 
/opt/xchem-fragalysis-2/maxwin/BulkDock/SCRATCH/511015/C25225-P116/C25225-P116.minimised.mol

>  <scratch_subdir>  (757) 
/opt/xchem-fragalysis-2/maxwin/BulkDock/SCRATCH/511015/C25225-P116

>  <fragmenstein_runtime>  (757) 
11.100972175598145

>  <fragmenstein_outcome>  (757) 
too moved

>  <fragmenstein_mode>  (757) 
expansion

>  <fragmenstein_error>  (757) 


$$$$
C25226-P93
     RDKit          3D

 49 52  0  0  0  0  0  0  0  0999 V2000
    6.1343  -13.7756   28.8716 O   0  0  0  0  0  0  0  0  0  0  0  0
    5.8357  -13.7840   27.7063 C   0  0  0  0  0  0  0  0  0  0  0  0
    6.7816  -12.9597   26.6927 C   0  0  0  0  0  0  0  0  0  0  0  0
    7.7675  -11.7828   27.0863 C   0  0  0  0  0  0  0  0  0  0  0  0
    8.9118  -11.4721   26.1390 N   0  0  0  0  0  0  0  0  0  0  0  0
    9.8689  -12.4078   25.7367 C   0  0  0  0  0  0  0  0  0  0  0  0
   10.0041  -13.7683   26.2656 C   0  0  0  0  0  0  0  0  0  0  0  0
    9.9891  -14.8576   25.3924 C   0  0  0  0  0  0  0  0  0  0  0  0
   10.1131  -16.1619   25.8726 C   0  0  0  0  0  0  0  0  0  0  0  0
   10.2770  -16.3852   27.2377 C   0  0  0  0  0  0  0  0  0  0  0  0
   10.3253  -15.3053   28.1174 C   0  0  0  0  0  0  0  0  0  0  0  0
   10.1973  -14.0015   27.6323 C   0  0  0  0  0  0  0  0  0  0  0  0
   10.6962  -11.8095   24.8001 C   0  0  0  0  0  0  0  0  0  0  0  0
   10.4848  -10.4200   24.8497 C   0  0  0  0  0  0  0  0  0  0  0  0
   11.2209   -9.3421   24.3047 C   0  0  0  0  0  0  0  0  0  0  0  0
   10.9256   -8.0531   24.7155 C   0  0  0  0  0  0  0  0  0  0  0  0
    9.8454   -7.8378   25.5644 C   0  0  0  0  0  0  0  0  0  0  0  0
    9.0240   -8.8877   26.0279 C   0  0  0  0  0  0  0  0  0  0  0  0
    9.3848  -10.2072   25.7054 C   0  0  0  0  0  0  0  0  0  0  0  0
    4.7518  -14.5320   26.9811 N   0  0  0  0  0  0  0  0  0  0  0  0
    3.7506  -15.5983   27.4800 C   0  0  0  0  0  0  0  0  0  0  0  0
    1.8848  -15.2757   27.9062 C   0  0  0  0  0  0  0  0  0  0  0  0
    0.1327  -14.4429   27.3613 C   0  0  0  0  0  0  0  0  0  0  0  0
   -1.0668  -15.4421   28.2306 C   0  0  0  0  0  0  0  0  0  0  0  0
   -2.1214  -16.0118   27.3974 N   0  0  0  0  0  0  0  0  0  0  0  0
   -2.1792  -14.8501   26.9043 C   0  0  0  0  0  0  0  0  0  0  0  0
   -1.5456  -14.5677   28.0355 N   0  0  0  0  0  0  0  0  0  0  0  0
    6.1783  -12.5912   25.8654 H   0  0  0  0  0  0  0  0  0  0  0  0
    7.4327  -13.7608   26.3477 H   0  0  0  0  0  0  0  0  0  0  0  0
    7.1906  -10.8553   27.1660 H   0  0  0  0  0  0  0  0  0  0  0  0
    8.2312  -11.9682   28.0598 H   0  0  0  0  0  0  0  0  0  0  0  0
    9.8569  -14.6802   24.3317 H   0  0  0  0  0  0  0  0  0  0  0  0
   10.0727  -17.0007   25.1830 H   0  0  0  0  0  0  0  0  0  0  0  0
   10.3700  -17.3999   27.6157 H   0  0  0  0  0  0  0  0  0  0  0  0
   10.4637  -15.4765   29.1817 H   0  0  0  0  0  0  0  0  0  0  0  0
   10.2609  -13.1711   28.3307 H   0  0  0  0  0  0  0  0  0  0  0  0
   11.5041  -12.3133   24.2852 H   0  0  0  0  0  0  0  0  0  0  0  0
   12.0847   -9.5343   23.6750 H   0  0  0  0  0  0  0  0  0  0  0  0
   11.5562   -7.2223   24.4104 H   0  0  0  0  0  0  0  0  0  0  0  0
    9.6646   -6.8215   25.9040 H   0  0  0  0  0  0  0  0  0  0  0  0
    8.2038   -8.6788   26.7066 H   0  0  0  0  0  0  0  0  0  0  0  0
    4.7341  -14.2377   26.0120 H   0  0  0  0  0  0  0  0  0  0  0  0
    3.7905  -16.3941   26.7182 H   0  0  0  0  0  0  0  0  0  0  0  0
    4.2768  -16.1291   28.2747 H   0  0  0  0  0  0  0  0  0  0  0  0
    1.6191  -16.3000   27.6547 H   0  0  0  0  0  0  0  0  0  0  0  0
    2.2625  -14.3729   27.3906 H   0  0  0  0  0  0  0  0  0  0  0  0
   -0.7471  -15.6506   29.3540 H   0  0  0  0  0  0  0  0  0  0  0  0
   -2.3906  -14.3582   25.9586 H   0  0  0  0  0  0  0  0  0  0  0  0
   -1.8476  -13.8736   28.7648 H   0  0  0  0  0  0  0  0  0  0  0  0
  1  2  2  0
  2  3  1  0
  3  4  1  0
  4  5  1  0
  5  6  1  0
  6  7  1  0
  7  8  2  0
  8  9  1  0
  9 10  2  0
 10 11  1  0
 11 12  2  0
  6 13  2  0
 13 14  1  0
 14 15  2  0
 15 16  1  0
 16 17  2  0
 17 18  1  0
 18 19  2  0
  2 20  1  0
 20 21  1  0
 21 22  1  0
 22 23  1  0
 23 24  2  0
 24 25  1  0
 25 26  2  0
 26 27  1  0
 19  5  1  0
 27 23  1  0
 12  7  1  0
 19 14  1  0
  3 28  1  0
  3 29  1  0
  4 30  1  0
  4 31  1  0
  8 32  1  0
  9 33  1  0
 10 34  1  0
 11 35  1  0
 12 36  1  0
 13 37  1  0
 15 38  1  0
 16 39  1  0
 17 40  1  0
 18 41  1  0
 20 42  1  0
 21 43  1  0
 21 44  1  0
 22 45  1  0
 22 46  1  0
 24 47  1  0
 26 48  1  0
 27 49  1  0
M  END
>  <Energy>  (758) 
539.17311894026545

>  <compound_id>  (758) 
25226

>  <target_id>  (758) 
1

>  <reference_id>  (758) 
93

>  <inspiration_ids>  (758) 
[93, 116]

>  <energy_score>  (758) 
499.2270891731617

>  <distance_score>  (758) 
10.124975517490357

>  <path>  (758) 
/opt/xchem-fragalysis-2/maxwin/BulkDock/SCRATCH/511015/C25226-P93/C25226-P93.minimised.mol

>  <scratch_subdir>  (758) 
/opt/xchem-fragalysis-2/maxwin/BulkDock/SCRATCH/511015/C25226-P93

>  <fragmenstein_runtime>  (758) 
31.88143754005432

>  <fragmenstein_outcome>  (758) 
too moved

>  <fragmenstein_mode>  (758) 
expansion

>  <fragmenstein_error>  (758) 


$$$$
C25226-P116
     RDKit          3D

 49 52  0  0  0  0  0  0  0  0999 V2000
   12.0738   -9.2583   23.8719 O   0  0  0  0  0  0  0  0  0  0  0  0
   11.5471   -8.2159   24.1432 C   0  0  0  0  0  0  0  0  0  0  0  0
   12.1085   -6.9059   23.4943 C   0  0  0  0  0  0  0  0  0  0  0  0
   13.5169   -7.0022   22.8847 C   0  0  0  0  0  0  0  0  0  0  0  0
   14.1686   -5.7169   22.5564 N   0  0  0  0  0  0  0  0  0  0  0  0
   15.1595   -5.1311   23.3335 C   0  0  0  0  0  0  0  0  0  0  0  0
   15.4958   -5.5497   24.6913 C   0  0  0  0  0  0  0  0  0  0  0  0
   16.6582   -6.2889   24.9343 C   0  0  0  0  0  0  0  0  0  0  0  0
   16.9736   -6.6960   26.2319 C   0  0  0  0  0  0  0  0  0  0  0  0
   16.1326   -6.3601   27.2925 C   0  0  0  0  0  0  0  0  0  0  0  0
   14.9782   -5.6138   27.0586 C   0  0  0  0  0  0  0  0  0  0  0  0
   14.6612   -5.2074   25.7612 C   0  0  0  0  0  0  0  0  0  0  0  0
   15.7679   -4.1512   22.5681 C   0  0  0  0  0  0  0  0  0  0  0  0
   15.1023   -4.0680   21.3236 C   0  0  0  0  0  0  0  0  0  0  0  0
   15.2870   -3.2611   20.1768 C   0  0  0  0  0  0  0  0  0  0  0  0
   14.4356   -3.4055   19.0829 C   0  0  0  0  0  0  0  0  0  0  0  0
   13.3919   -4.3147   19.1471 C   0  0  0  0  0  0  0  0  0  0  0  0
   13.1756   -5.1036   20.2892 C   0  0  0  0  0  0  0  0  0  0  0  0
   14.0669   -5.0087   21.3609 C   0  0  0  0  0  0  0  0  0  0  0  0
   10.4026   -7.9224   25.0097 N   0  0  0  0  0  0  0  0  0  0  0  0
    9.6006   -8.8067   25.8980 C   0  0  0  0  0  0  0  0  0  0  0  0
    8.0762   -8.9046   25.5955 C   0  0  0  0  0  0  0  0  0  0  0  0
    7.1973   -9.4301   26.6989 C   0  0  0  0  0  0  0  0  0  0  0  0
    6.1643   -8.8328   27.4009 C   0  0  0  0  0  0  0  0  0  0  0  0
    5.5762   -9.7119   28.2755 N   0  0  0  0  0  0  0  0  0  0  0  0
    6.2219  -10.8428   28.1071 C   0  0  0  0  0  0  0  0  0  0  0  0
    7.1868  -10.7330   27.1427 N   0  0  0  0  0  0  0  0  0  0  0  0
   12.0624   -6.0899   24.2219 H   0  0  0  0  0  0  0  0  0  0  0  0
   11.4615   -6.6831   22.6458 H   0  0  0  0  0  0  0  0  0  0  0  0
   14.1867   -7.5522   23.5543 H   0  0  0  0  0  0  0  0  0  0  0  0
   13.4869   -7.5804   21.9540 H   0  0  0  0  0  0  0  0  0  0  0  0
   17.3187   -6.5547   24.1121 H   0  0  0  0  0  0  0  0  0  0  0  0
   17.8764   -7.2729   26.4141 H   0  0  0  0  0  0  0  0  0  0  0  0
   16.3816   -6.6746   28.3028 H   0  0  0  0  0  0  0  0  0  0  0  0
   14.3301   -5.3413   27.8872 H   0  0  0  0  0  0  0  0  0  0  0  0
   13.7693   -4.6104   25.5886 H   0  0  0  0  0  0  0  0  0  0  0  0
   16.6048   -3.5444   22.8880 H   0  0  0  0  0  0  0  0  0  0  0  0
   16.0972   -2.5392   20.1453 H   0  0  0  0  0  0  0  0  0  0  0  0
   14.5807   -2.8038   18.1915 H   0  0  0  0  0  0  0  0  0  0  0  0
   12.7155   -4.4129   18.3016 H   0  0  0  0  0  0  0  0  0  0  0  0
   12.3171   -5.7573   20.3394 H   0  0  0  0  0  0  0  0  0  0  0  0
   10.2828   -6.9167   25.0726 H   0  0  0  0  0  0  0  0  0  0  0  0
    9.7491   -8.4133   26.9098 H   0  0  0  0  0  0  0  0  0  0  0  0
   10.0493   -9.8055   25.8629 H   0  0  0  0  0  0  0  0  0  0  0  0
    7.7147   -7.9059   25.3183 H   0  0  0  0  0  0  0  0  0  0  0  0
    7.9406   -9.5380   24.7120 H   0  0  0  0  0  0  0  0  0  0  0  0
    5.8032   -7.8158   27.3021 H   0  0  0  0  0  0  0  0  0  0  0  0
    6.0291  -11.7710   28.6294 H   0  0  0  0  0  0  0  0  0  0  0  0
    7.7792  -11.4858   26.8200 H   0  0  0  0  0  0  0  0  0  0  0  0
  1  2  2  0
  2  3  1  0
  3  4  1  0
  4  5  1  0
  5  6  1  0
  6  7  1  0
  7  8  2  0
  8  9  1  0
  9 10  2  0
 10 11  1  0
 11 12  2  0
  6 13  2  0
 13 14  1  0
 14 15  2  0
 15 16  1  0
 16 17  2  0
 17 18  1  0
 18 19  2  0
  2 20  1  0
 20 21  1  0
 21 22  1  0
 22 23  1  0
 23 24  2  0
 24 25  1  0
 25 26  2  0
 26 27  1  0
 19  5  1  0
 27 23  1  0
 12  7  1  0
 19 14  1  0
  3 28  1  0
  3 29  1  0
  4 30  1  0
  4 31  1  0
  8 32  1  0
  9 33  1  0
 10 34  1  0
 11 35  1  0
 12 36  1  0
 13 37  1  0
 15 38  1  0
 16 39  1  0
 17 40  1  0
 18 41  1  0
 20 42  1  0
 21 43  1  0
 21 44  1  0
 22 45  1  0
 22 46  1  0
 24 47  1  0
 26 48  1  0
 27 49  1  0
M  END
>  <Energy>  (759) 
29.07546000385403

>  <compound_id>  (759) 
25226

>  <target_id>  (759) 
1

>  <reference_id>  (759) 
116

>  <inspiration_ids>  (759) 
[93, 116]

>  <energy_score>  (759) 
-10.870569763245896

>  <distance_score>  (759) 
6.873466674531348

>  <path>  (759) 
/opt/xchem-fragalysis-2/maxwin/BulkDock/SCRATCH/511015/C25226-P116/C25226-P116.minimised.mol

>  <scratch_subdir>  (759) 
/opt/xchem-fragalysis-2/maxwin/BulkDock/SCRATCH/511015/C25226-P116

>  <fragmenstein_runtime>  (759) 
16.930951356887817

>  <fragmenstein_outcome>  (759) 
too moved

>  <fragmenstein_mode>  (759) 
expansion

>  <fragmenstein_error>  (759) 


$$$$
C25227-P93
     RDKit          3D

 28 30  0  0  0  0  0  0  0  0999 V2000
   13.7904   -9.6039   21.4547 C   0  0  0  0  0  0  0  0  0  0  0  0
   12.4268   -9.8255   21.1945 C   0  0  0  0  0  0  0  0  0  0  0  0
   11.2863   -8.6663   21.0990 C   0  0  0  0  0  0  0  0  0  0  0  0
    9.9370   -8.8214   19.8704 N   0  0  0  0  0  0  0  0  0  0  0  0
    8.8713   -9.9586   18.5905 C   0  0  0  0  0  0  0  0  0  0  0  0
    7.9009  -11.3247   18.8503 C   0  0  0  0  0  0  0  0  0  0  0  0
    8.2286  -12.6809   18.8030 C   0  0  0  0  0  0  0  0  0  0  0  0
    7.1811  -13.5019   19.1230 N   0  0  0  0  0  0  0  0  0  0  0  0
    6.1502  -12.7058   19.1564 C   0  0  0  0  0  0  0  0  0  0  0  0
    6.5216  -11.4266   18.8451 N   0  0  0  0  0  0  0  0  0  0  0  0
   11.7897   -7.9221   22.1782 C   0  0  0  0  0  0  0  0  0  0  0  0
   11.4009   -7.9176   23.5331 N   0  0  0  0  0  0  0  0  0  0  0  0
   12.0979   -6.9447   24.2184 C   0  0  0  0  0  0  0  0  0  0  0  0
   13.2064   -6.6465   23.4618 C   0  0  0  0  0  0  0  0  0  0  0  0
   13.1603   -7.6047   22.4176 C   0  0  0  0  0  0  0  0  0  0  0  0
   14.1919   -8.3450   21.8438 C   0  0  0  0  0  0  0  0  0  0  0  0
   14.5222  -10.3752   21.2307 H   0  0  0  0  0  0  0  0  0  0  0  0
   12.2800  -10.7549   20.6387 H   0  0  0  0  0  0  0  0  0  0  0  0
    9.3940   -7.9793   20.0678 H   0  0  0  0  0  0  0  0  0  0  0  0
    8.7497   -9.7221   17.5542 H   0  0  0  0  0  0  0  0  0  0  0  0
    9.7395  -10.6482   18.2573 H   0  0  0  0  0  0  0  0  0  0  0  0
    9.1892  -13.1165   18.5701 H   0  0  0  0  0  0  0  0  0  0  0  0
    5.1221  -12.9978   19.3227 H   0  0  0  0  0  0  0  0  0  0  0  0
    5.8460  -10.7137   18.5998 H   0  0  0  0  0  0  0  0  0  0  0  0
   10.6343   -8.4582   23.9029 H   0  0  0  0  0  0  0  0  0  0  0  0
   11.7964   -6.6277   25.2085 H   0  0  0  0  0  0  0  0  0  0  0  0
   14.0601   -6.0842   23.8183 H   0  0  0  0  0  0  0  0  0  0  0  0
   15.2377   -8.1224   22.0269 H   0  0  0  0  0  0  0  0  0  0  0  0
  1  2  2  0
  2  3  1  0
  3  4  1  0
  4  5  1  0
  5  6  1  0
  6  7  2  0
  7  8  1  0
  8  9  2  0
  9 10  1  0
  3 11  2  0
 11 12  1  0
 12 13  1  0
 13 14  2  0
 14 15  1  0
 15 16  2  0
 16  1  1  0
 10  6  1  0
 15 11  1  0
  1 17  1  0
  2 18  1  0
  4 19  1  0
  5 20  1  0
  5 21  1  0
  7 22  1  0
  9 23  1  0
 10 24  1  0
 12 25  1  0
 13 26  1  0
 14 27  1  0
 16 28  1  0
M  END
>  <Energy>  (760) 
308.22596412217536

>  <compound_id>  (760) 
25227

>  <target_id>  (760) 
1

>  <reference_id>  (760) 
93

>  <inspiration_ids>  (760) 
[93, 116]

>  <energy_score>  (760) 
297.4916777279391

>  <distance_score>  (760) 
10.619538443240364

>  <path>  (760) 
/opt/xchem-fragalysis-2/maxwin/BulkDock/SCRATCH/511015/C25227-P93/C25227-P93.minimised.mol

>  <scratch_subdir>  (760) 
/opt/xchem-fragalysis-2/maxwin/BulkDock/SCRATCH/511015/C25227-P93

>  <fragmenstein_runtime>  (760) 
10.047713041305542

>  <fragmenstein_outcome>  (760) 
too moved

>  <fragmenstein_mode>  (760) 
expansion

>  <fragmenstein_error>  (760) 


$$$$
C25227-P116
     RDKit          3D

 28 30  0  0  0  0  0  0  0  0999 V2000
   12.5376   -8.6474   22.5847 C   0  0  0  0  0  0  0  0  0  0  0  0
   11.5227   -8.8183   23.5379 C   0  0  0  0  0  0  0  0  0  0  0  0
   11.0604   -7.7917   24.3851 C   0  0  0  0  0  0  0  0  0  0  0  0
    9.9036   -7.9241   25.1862 N   0  0  0  0  0  0  0  0  0  0  0  0
    9.3170   -9.2167   25.6303 C   0  0  0  0  0  0  0  0  0  0  0  0
    8.0050   -9.2163   26.3755 C   0  0  0  0  0  0  0  0  0  0  0  0
    6.9440   -8.3370   26.4976 C   0  0  0  0  0  0  0  0  0  0  0  0
    5.9685   -8.8367   27.3386 N   0  0  0  0  0  0  0  0  0  0  0  0
    6.3865  -10.0293   27.6824 C   0  0  0  0  0  0  0  0  0  0  0  0
    7.5866  -10.3191   27.1005 N   0  0  0  0  0  0  0  0  0  0  0  0
   11.7978   -6.5750   24.2287 C   0  0  0  0  0  0  0  0  0  0  0  0
   11.6687   -5.3550   24.8749 N   0  0  0  0  0  0  0  0  0  0  0  0
   12.4982   -4.4077   24.3282 C   0  0  0  0  0  0  0  0  0  0  0  0
   13.2157   -5.0053   23.3246 C   0  0  0  0  0  0  0  0  0  0  0  0
   12.7926   -6.3629   23.2562 C   0  0  0  0  0  0  0  0  0  0  0  0
   13.1690   -7.4195   22.4200 C   0  0  0  0  0  0  0  0  0  0  0  0
   12.8411   -9.4913   21.9701 H   0  0  0  0  0  0  0  0  0  0  0  0
   11.0904   -9.8114   23.6134 H   0  0  0  0  0  0  0  0  0  0  0  0
    9.7606   -7.1713   25.8513 H   0  0  0  0  0  0  0  0  0  0  0  0
    9.1657   -9.8566   24.7556 H   0  0  0  0  0  0  0  0  0  0  0  0
   10.0652   -9.7113   26.2631 H   0  0  0  0  0  0  0  0  0  0  0  0
    6.8259   -7.3649   26.0321 H   0  0  0  0  0  0  0  0  0  0  0  0
    5.8749  -10.7245   28.3340 H   0  0  0  0  0  0  0  0  0  0  0  0
    8.0885  -11.1899   27.2054 H   0  0  0  0  0  0  0  0  0  0  0  0
   11.0033   -5.1777   25.6138 H   0  0  0  0  0  0  0  0  0  0  0  0
   12.4988   -3.3940   24.7050 H   0  0  0  0  0  0  0  0  0  0  0  0
   13.9559   -4.5265   22.6972 H   0  0  0  0  0  0  0  0  0  0  0  0
   13.9507   -7.2867   21.6786 H   0  0  0  0  0  0  0  0  0  0  0  0
  1  2  2  0
  2  3  1  0
  3  4  1  0
  4  5  1  0
  5  6  1  0
  6  7  2  0
  7  8  1  0
  8  9  2  0
  9 10  1  0
  3 11  2  0
 11 12  1  0
 12 13  1  0
 13 14  2  0
 14 15  1  0
 15 16  2  0
 16  1  1  0
 10  6  1  0
 15 11  1  0
  1 17  1  0
  2 18  1  0
  4 19  1  0
  5 20  1  0
  5 21  1  0
  7 22  1  0
  9 23  1  0
 10 24  1  0
 12 25  1  0
 13 26  1  0
 14 27  1  0
 16 28  1  0
M  END
>  <Energy>  (761) 
-0.022751271162894771

>  <compound_id>  (761) 
25227

>  <target_id>  (761) 
1

>  <reference_id>  (761) 
116

>  <inspiration_ids>  (761) 
[93, 116]

>  <energy_score>  (761) 
-10.757037665396979

>  <distance_score>  (761) 
9.150293142214524

>  <path>  (761) 
/opt/xchem-fragalysis-2/maxwin/BulkDock/SCRATCH/511015/C25227-P116/C25227-P116.minimised.mol

>  <scratch_subdir>  (761) 
/opt/xchem-fragalysis-2/maxwin/BulkDock/SCRATCH/511015/C25227-P116

>  <fragmenstein_runtime>  (761) 
7.271638870239258

>  <fragmenstein_outcome>  (761) 
too moved

>  <fragmenstein_mode>  (761) 
expansion

>  <fragmenstein_error>  (761) 


$$$$
C25228-P93
     RDKit          3D

 45 47  0  0  0  0  0  0  0  0999 V2000
    1.9600  -13.0743   23.5121 C   0  0  0  0  0  0  0  0  0  0  0  0
    0.9001  -14.0321   22.8455 C   0  0  0  0  0  0  0  0  0  0  0  0
   -0.7473  -14.6196   24.0990 C   0  0  0  0  0  0  0  0  0  0  0  0
   -2.2350  -15.8851   24.8373 C   0  0  0  0  0  0  0  0  0  0  0  0
   -2.1456  -17.5065   25.3641 C   0  0  0  0  0  0  0  0  0  0  0  0
   -1.0625  -18.2219   25.6655 N   0  0  0  0  0  0  0  0  0  0  0  0
   -1.3316  -17.7160   26.7839 C   0  0  0  0  0  0  0  0  0  0  0  0
   -2.4468  -16.6038   26.5665 N   0  0  0  0  0  0  0  0  0  0  0  0
    2.4205  -14.1946   21.4482 C   0  0  0  0  0  0  0  0  0  0  0  0
    2.3951  -15.2146   20.7763 O   0  0  0  0  0  0  0  0  0  0  0  0
    3.6410  -12.8388   21.2520 N   0  0  0  0  0  0  0  0  0  0  0  0
    5.2492  -12.6578   20.0954 C   0  0  0  0  0  0  0  0  0  0  0  0
    6.5194  -11.1305   19.4022 C   0  0  0  0  0  0  0  0  0  0  0  0
    8.3092  -10.2300   18.8756 C   0  0  0  0  0  0  0  0  0  0  0  0
    9.0265  -10.6354   17.6253 C   0  0  0  0  0  0  0  0  0  0  0  0
   10.3957  -10.9957   17.8284 N   0  0  0  0  0  0  0  0  0  0  0  0
   11.1149  -11.8405   16.8928 C   0  0  0  0  0  0  0  0  0  0  0  0
   11.0288  -10.3293   18.9353 C   0  0  0  0  0  0  0  0  0  0  0  0
   12.3620  -10.7751   19.8303 C   0  0  0  0  0  0  0  0  0  0  0  0
   12.7669  -10.1625   21.1197 C   0  0  0  0  0  0  0  0  0  0  0  0
   12.0633   -9.0043   21.6095 C   0  0  0  0  0  0  0  0  0  0  0  0
   10.7571   -8.4992   20.8760 C   0  0  0  0  0  0  0  0  0  0  0  0
    9.8591   -9.0529   19.4786 C   0  0  0  0  0  0  0  0  0  0  0  0
    1.8982  -12.8587   24.5647 H   0  0  0  0  0  0  0  0  0  0  0  0
    1.9189  -12.1260   23.0122 H   0  0  0  0  0  0  0  0  0  0  0  0
    2.9616  -13.4882   23.4743 H   0  0  0  0  0  0  0  0  0  0  0  0
    0.3004  -13.4046   22.1732 H   0  0  0  0  0  0  0  0  0  0  0  0
   -1.0778  -13.8333   24.7714 H   0  0  0  0  0  0  0  0  0  0  0  0
   -1.2623  -14.8359   23.1495 H   0  0  0  0  0  0  0  0  0  0  0  0
   -2.7418  -18.3366   25.3114 H   0  0  0  0  0  0  0  0  0  0  0  0
   -0.5412  -17.7296   27.4706 H   0  0  0  0  0  0  0  0  0  0  0  0
   -2.3355  -15.8753   27.2558 H   0  0  0  0  0  0  0  0  0  0  0  0
    3.4989  -12.1553   21.9751 H   0  0  0  0  0  0  0  0  0  0  0  0
    4.6801  -12.7808   19.1754 H   0  0  0  0  0  0  0  0  0  0  0  0
    5.2707  -11.8312   20.7936 H   0  0  0  0  0  0  0  0  0  0  0  0
    6.2210  -11.2833   18.3552 H   0  0  0  0  0  0  0  0  0  0  0  0
    7.1830  -11.7096   19.9604 H   0  0  0  0  0  0  0  0  0  0  0  0
    8.6064  -11.0073   16.6937 H   0  0  0  0  0  0  0  0  0  0  0  0
   11.9915  -12.2716   17.3780 H   0  0  0  0  0  0  0  0  0  0  0  0
   10.4521  -12.6419   16.5588 H   0  0  0  0  0  0  0  0  0  0  0  0
   11.4157  -11.2191   16.0456 H   0  0  0  0  0  0  0  0  0  0  0  0
   12.9753  -11.5649   19.3909 H   0  0  0  0  0  0  0  0  0  0  0  0
   13.6701  -10.5127   21.6128 H   0  0  0  0  0  0  0  0  0  0  0  0
   12.4460   -8.4284   22.4487 H   0  0  0  0  0  0  0  0  0  0  0  0
   10.6660   -7.4828   21.1198 H   0  0  0  0  0  0  0  0  0  0  0  0
  1  2  1  0
  2  3  1  0
  3  4  1  0
  4  5  2  0
  5  6  1  0
  6  7  2  0
  7  8  1  0
  2  9  1  0
  9 10  2  0
  9 11  1  0
 11 12  1  0
 12 13  1  0
 13 14  1  0
 14 15  2  0
 15 16  1  0
 16 17  1  0
 16 18  1  0
 18 19  2  0
 19 20  1  0
 20 21  2  0
 21 22  1  0
 22 23  2  0
  8  4  1  0
 23 14  1  0
 23 18  1  0
  1 24  1  0
  1 25  1  0
  1 26  1  0
  2 27  1  0
  3 28  1  0
  3 29  1  0
  5 30  1  0
  7 31  1  0
  8 32  1  0
 11 33  1  0
 12 34  1  0
 12 35  1  0
 13 36  1  0
 13 37  1  0
 15 38  1  0
 17 39  1  0
 17 40  1  0
 17 41  1  0
 19 42  1  0
 20 43  1  0
 21 44  1  0
 22 45  1  0
M  END
>  <Energy>  (762) 
1370.7540352566193

>  <compound_id>  (762) 
25228

>  <target_id>  (762) 
1

>  <reference_id>  (762) 
93

>  <inspiration_ids>  (762) 
[93, 116]

>  <energy_score>  (762) 
1326.7986794015278

>  <distance_score>  (762) 
8.257255863423772

>  <path>  (762) 
/opt/xchem-fragalysis-2/maxwin/BulkDock/SCRATCH/511015/C25228-P93/C25228-P93.minimised.mol

>  <scratch_subdir>  (762) 
/opt/xchem-fragalysis-2/maxwin/BulkDock/SCRATCH/511015/C25228-P93

>  <fragmenstein_runtime>  (762) 
29.287941694259644

>  <fragmenstein_outcome>  (762) 
too moved

>  <fragmenstein_mode>  (762) 
expansion

>  <fragmenstein_error>  (762) 


$$$$
C25228-P116
     RDKit          3D

 45 47  0  0  0  0  0  0  0  0999 V2000
    9.3535   -7.9773   27.2118 C   0  0  0  0  0  0  0  0  0  0  0  0
    8.8082   -8.5932   25.9305 C   0  0  0  0  0  0  0  0  0  0  0  0
    7.8039   -9.9139   26.3252 C   0  0  0  0  0  0  0  0  0  0  0  0
    6.6066   -9.8214   27.2579 C   0  0  0  0  0  0  0  0  0  0  0  0
    6.1911  -10.6595   28.2847 C   0  0  0  0  0  0  0  0  0  0  0  0
    4.9507  -10.3857   28.7450 N   0  0  0  0  0  0  0  0  0  0  0  0
    4.6493   -9.3254   28.0649 C   0  0  0  0  0  0  0  0  0  0  0  0
    5.5794   -8.9284   27.1690 N   0  0  0  0  0  0  0  0  0  0  0  0
   10.1319   -8.9011   24.8785 C   0  0  0  0  0  0  0  0  0  0  0  0
   10.3427  -10.0415   24.6336 O   0  0  0  0  0  0  0  0  0  0  0  0
   10.8278   -7.5601   24.2949 N   0  0  0  0  0  0  0  0  0  0  0  0
   12.0992   -7.3818   23.2772 C   0  0  0  0  0  0  0  0  0  0  0  0
   12.3284   -5.9936   22.3230 C   0  0  0  0  0  0  0  0  0  0  0  0
   13.5960   -5.7739   21.2704 C   0  0  0  0  0  0  0  0  0  0  0  0
   14.7968   -6.4625   21.2627 C   0  0  0  0  0  0  0  0  0  0  0  0
   15.5419   -6.1347   20.1452 N   0  0  0  0  0  0  0  0  0  0  0  0
   16.7927   -6.7690   19.7938 C   0  0  0  0  0  0  0  0  0  0  0  0
   14.9186   -5.1772   19.3876 C   0  0  0  0  0  0  0  0  0  0  0  0
   15.2558   -4.5879   18.1396 C   0  0  0  0  0  0  0  0  0  0  0  0
   14.3985   -3.6537   17.5582 C   0  0  0  0  0  0  0  0  0  0  0  0
   13.3087   -3.2264   18.2758 C   0  0  0  0  0  0  0  0  0  0  0  0
   13.0599   -3.7870   19.5471 C   0  0  0  0  0  0  0  0  0  0  0  0
   13.7669   -4.8588   20.0992 C   0  0  0  0  0  0  0  0  0  0  0  0
    9.9791   -8.6973   27.7497 H   0  0  0  0  0  0  0  0  0  0  0  0
    9.9710   -7.0996   26.9990 H   0  0  0  0  0  0  0  0  0  0  0  0
    8.5422   -7.6627   27.8751 H   0  0  0  0  0  0  0  0  0  0  0  0
    8.1740   -7.8658   25.4096 H   0  0  0  0  0  0  0  0  0  0  0  0
    8.4835  -10.6818   26.7184 H   0  0  0  0  0  0  0  0  0  0  0  0
    7.4474  -10.3004   25.3609 H   0  0  0  0  0  0  0  0  0  0  0  0
    6.7434  -11.4657   28.7049 H   0  0  0  0  0  0  0  0  0  0  0  0
    3.6811   -8.9288   28.0753 H   0  0  0  0  0  0  0  0  0  0  0  0
    5.4722   -8.1790   26.4939 H   0  0  0  0  0  0  0  0  0  0  0  0
   10.4639   -6.7473   24.7809 H   0  0  0  0  0  0  0  0  0  0  0  0
   12.9773   -7.4888   23.9225 H   0  0  0  0  0  0  0  0  0  0  0  0
   12.0551   -8.2528   22.6152 H   0  0  0  0  0  0  0  0  0  0  0  0
   11.4449   -5.9086   21.6812 H   0  0  0  0  0  0  0  0  0  0  0  0
   12.3475   -5.1325   23.0016 H   0  0  0  0  0  0  0  0  0  0  0  0
   15.1568   -7.2288   21.9361 H   0  0  0  0  0  0  0  0  0  0  0  0
   17.0957   -7.4521   20.5914 H   0  0  0  0  0  0  0  0  0  0  0  0
   16.6518   -7.3259   18.8643 H   0  0  0  0  0  0  0  0  0  0  0  0
   17.5522   -5.9929   19.6689 H   0  0  0  0  0  0  0  0  0  0  0  0
   16.1510   -4.9027   17.6130 H   0  0  0  0  0  0  0  0  0  0  0  0
   14.6212   -3.2408   16.5803 H   0  0  0  0  0  0  0  0  0  0  0  0
   12.6626   -2.4610   17.8689 H   0  0  0  0  0  0  0  0  0  0  0  0
   12.2956   -3.4483   20.2146 H   0  0  0  0  0  0  0  0  0  0  0  0
  1  2  1  0
  2  3  1  0
  3  4  1  0
  4  5  2  0
  5  6  1  0
  6  7  2  0
  7  8  1  0
  2  9  1  0
  9 10  2  0
  9 11  1  0
 11 12  1  0
 12 13  1  0
 13 14  1  0
 14 15  2  0
 15 16  1  0
 16 17  1  0
 16 18  1  0
 18 19  2  0
 19 20  1  0
 20 21  2  0
 21 22  1  0
 22 23  2  0
  8  4  1  0
 23 14  1  0
 23 18  1  0
  1 24  1  0
  1 25  1  0
  1 26  1  0
  2 27  1  0
  3 28  1  0
  3 29  1  0
  5 30  1  0
  7 31  1  0
  8 32  1  0
 11 33  1  0
 12 34  1  0
 12 35  1  0
 13 36  1  0
 13 37  1  0
 15 38  1  0
 17 39  1  0
 17 40  1  0
 17 41  1  0
 19 42  1  0
 20 43  1  0
 21 44  1  0
 22 45  1  0
M  END
>  <Energy>  (763) 
104.68637295205366

>  <compound_id>  (763) 
25228

>  <target_id>  (763) 
1

>  <reference_id>  (763) 
116

>  <inspiration_ids>  (763) 
[93, 116]

>  <energy_score>  (763) 
52.0384218738638

>  <distance_score>  (763) 
6.199629639957014

>  <path>  (763) 
/opt/xchem-fragalysis-2/maxwin/BulkDock/SCRATCH/511015/C25228-P116/C25228-P116.minimised.mol

>  <scratch_subdir>  (763) 
/opt/xchem-fragalysis-2/maxwin/BulkDock/SCRATCH/511015/C25228-P116

>  <fragmenstein_runtime>  (763) 
9.164364099502563

>  <fragmenstein_outcome>  (763) 
too moved

>  <fragmenstein_mode>  (763) 
expansion

>  <fragmenstein_error>  (763) 


$$$$
C25230-P93
     RDKit          3D

 43 45  0  0  0  0  0  0  0  0999 V2000
   12.1253   -4.5919   18.0187 C   0  0  0  0  0  0  0  0  0  0  0  0
   11.7611   -5.1068   19.5934 C   0  0  0  0  0  0  0  0  0  0  0  0
   12.7227   -4.4056   20.6715 C   0  0  0  0  0  0  0  0  0  0  0  0
   13.7571   -3.7069   19.9537 N   0  0  0  0  0  0  0  0  0  0  0  0
   14.9438   -4.1812   19.3302 C   0  0  0  0  0  0  0  0  0  0  0  0
   15.4325   -5.2694   19.3095 O   0  0  0  0  0  0  0  0  0  0  0  0
   15.5772   -3.1216   18.5064 C   0  0  0  0  0  0  0  0  0  0  0  0
   15.6393   -3.3974   17.1236 C   0  0  0  0  0  0  0  0  0  0  0  0
   15.9118   -2.4028   16.1965 C   0  0  0  0  0  0  0  0  0  0  0  0
   16.1200   -1.0954   16.6295 C   0  0  0  0  0  0  0  0  0  0  0  0
   16.0840   -0.7925   18.0071 C   0  0  0  0  0  0  0  0  0  0  0  0
   16.2279    0.4172   18.7314 C   0  0  0  0  0  0  0  0  0  0  0  0
   16.0882    0.1236   20.0655 C   0  0  0  0  0  0  0  0  0  0  0  0
   15.8987   -1.2279   20.1893 N   0  0  0  0  0  0  0  0  0  0  0  0
   15.8729   -1.9027   21.4713 C   0  0  0  0  0  0  0  0  0  0  0  0
   15.8330   -1.8109   18.9394 C   0  0  0  0  0  0  0  0  0  0  0  0
   10.2068   -5.7218   20.4560 N   0  0  0  0  0  0  0  0  0  0  0  0
    8.4686   -4.8703   20.8898 C   0  0  0  0  0  0  0  0  0  0  0  0
    8.1146   -3.8268   20.5572 O   0  0  0  0  0  0  0  0  0  0  0  0
    7.3476   -5.8220   22.1700 C   0  0  0  0  0  0  0  0  0  0  0  0
    7.6778   -6.6477   23.5422 C   0  0  0  0  0  0  0  0  0  0  0  0
    6.7914   -7.3780   24.2263 N   0  0  0  0  0  0  0  0  0  0  0  0
    5.9063   -6.6907   23.6270 C   0  0  0  0  0  0  0  0  0  0  0  0
    6.6277   -5.5313   23.3142 N   0  0  0  0  0  0  0  0  0  0  0  0
   13.0425   -5.0757   17.6779 H   0  0  0  0  0  0  0  0  0  0  0  0
   12.3436   -3.5198   17.9652 H   0  0  0  0  0  0  0  0  0  0  0  0
   11.3574   -4.8109   17.2757 H   0  0  0  0  0  0  0  0  0  0  0  0
   12.3437   -6.0059   19.7281 H   0  0  0  0  0  0  0  0  0  0  0  0
   13.2024   -5.1665   21.3011 H   0  0  0  0  0  0  0  0  0  0  0  0
   12.1800   -3.7574   21.3384 H   0  0  0  0  0  0  0  0  0  0  0  0
   13.6971   -2.7059   19.8284 H   0  0  0  0  0  0  0  0  0  0  0  0
   15.4210   -4.4011   16.7639 H   0  0  0  0  0  0  0  0  0  0  0  0
   15.9422   -2.6380   15.1351 H   0  0  0  0  0  0  0  0  0  0  0  0
   16.3150   -0.3092   15.9045 H   0  0  0  0  0  0  0  0  0  0  0  0
   16.4139    1.4008   18.3197 H   0  0  0  0  0  0  0  0  0  0  0  0
   16.1408    0.7654   20.9363 H   0  0  0  0  0  0  0  0  0  0  0  0
   16.3136   -2.8966   21.3707 H   0  0  0  0  0  0  0  0  0  0  0  0
   16.4660   -1.3266   22.1874 H   0  0  0  0  0  0  0  0  0  0  0  0
   14.8366   -1.9579   21.8104 H   0  0  0  0  0  0  0  0  0  0  0  0
   10.2469   -6.6517   20.7839 H   0  0  0  0  0  0  0  0  0  0  0  0
    8.5805   -6.8577   24.1180 H   0  0  0  0  0  0  0  0  0  0  0  0
    4.8717   -6.9530   23.6305 H   0  0  0  0  0  0  0  0  0  0  0  0
    6.5925   -4.6206   23.7606 H   0  0  0  0  0  0  0  0  0  0  0  0
  1  2  1  0
  2  3  1  0
  3  4  1  0
  4  5  1  0
  5  6  2  0
  5  7  1  0
  7  8  2  0
  8  9  1  0
  9 10  2  0
 10 11  1  0
 11 12  1  0
 12 13  2  0
 13 14  1  0
 14 15  1  0
 14 16  1  0
  2 17  1  0
 17 18  1  0
 18 19  2  0
 18 20  1  0
 20 21  2  0
 21 22  1  0
 22 23  2  0
 23 24  1  0
 16  7  1  0
 24 20  1  0
 16 11  2  0
  1 25  1  0
  1 26  1  0
  1 27  1  0
  2 28  1  0
  3 29  1  0
  3 30  1  0
  4 31  1  0
  8 32  1  0
  9 33  1  0
 10 34  1  0
 12 35  1  0
 13 36  1  0
 15 37  1  0
 15 38  1  0
 15 39  1  0
 17 40  1  0
 21 41  1  0
 23 42  1  0
 24 43  1  0
M  END
>  <Energy>  (764) 
415.56811657284572

>  <compound_id>  (764) 
25230

>  <target_id>  (764) 
1

>  <reference_id>  (764) 
93

>  <inspiration_ids>  (764) 
[93, 116]

>  <energy_score>  (764) 
390.52810471538214

>  <distance_score>  (764) 
8.168501261105241

>  <path>  (764) 
/opt/xchem-fragalysis-2/maxwin/BulkDock/SCRATCH/511015/C25230-P93/C25230-P93.minimised.mol

>  <scratch_subdir>  (764) 
/opt/xchem-fragalysis-2/maxwin/BulkDock/SCRATCH/511015/C25230-P93

>  <fragmenstein_runtime>  (764) 
17.99146008491516

>  <fragmenstein_outcome>  (764) 
too moved

>  <fragmenstein_mode>  (764) 
expansion

>  <fragmenstein_error>  (764) 


$$$$
C25230-P116
     RDKit          3D

 43 45  0  0  0  0  0  0  0  0999 V2000
    6.4402   -0.1492   17.5809 C   0  0  0  0  0  0  0  0  0  0  0  0
    7.5127   -0.5455   18.9916 C   0  0  0  0  0  0  0  0  0  0  0  0
    8.3506    0.8244   18.7324 C   0  0  0  0  0  0  0  0  0  0  0  0
    9.2679    0.9634   17.5437 N   0  0  0  0  0  0  0  0  0  0  0  0
    9.4873    0.0897   16.3947 C   0  0  0  0  0  0  0  0  0  0  0  0
    9.0512   -0.9939   16.1481 O   0  0  0  0  0  0  0  0  0  0  0  0
   10.4963    0.6158   15.4095 C   0  0  0  0  0  0  0  0  0  0  0  0
   10.3315    1.9291   14.9445 C   0  0  0  0  0  0  0  0  0  0  0  0
   11.3064    2.5470   14.1733 C   0  0  0  0  0  0  0  0  0  0  0  0
   12.4953    1.8859   13.8692 C   0  0  0  0  0  0  0  0  0  0  0  0
   12.6913    0.5586   14.2877 C   0  0  0  0  0  0  0  0  0  0  0  0
   13.8010   -0.3200   14.1682 C   0  0  0  0  0  0  0  0  0  0  0  0
   13.4361   -1.5144   14.7264 C   0  0  0  0  0  0  0  0  0  0  0  0
   12.1251   -1.4077   15.1244 N   0  0  0  0  0  0  0  0  0  0  0  0
   11.3686   -2.5742   15.5079 C   0  0  0  0  0  0  0  0  0  0  0  0
   11.6672   -0.1024   14.9933 C   0  0  0  0  0  0  0  0  0  0  0  0
    6.8519   -1.3116   20.5170 N   0  0  0  0  0  0  0  0  0  0  0  0
    6.9587   -3.0483   21.2162 C   0  0  0  0  0  0  0  0  0  0  0  0
    7.6080   -3.9883   20.7572 O   0  0  0  0  0  0  0  0  0  0  0  0
    6.0754   -3.3037   22.8697 C   0  0  0  0  0  0  0  0  0  0  0  0
    5.2795   -2.4783   23.8933 C   0  0  0  0  0  0  0  0  0  0  0  0
    4.9736   -3.1183   25.1032 N   0  0  0  0  0  0  0  0  0  0  0  0
    5.4603   -4.3355   25.0456 C   0  0  0  0  0  0  0  0  0  0  0  0
    6.0794   -4.6059   23.8319 N   0  0  0  0  0  0  0  0  0  0  0  0
    5.9854    0.8450   17.7100 H   0  0  0  0  0  0  0  0  0  0  0  0
    7.0072   -0.0633   16.6540 H   0  0  0  0  0  0  0  0  0  0  0  0
    5.6387   -0.8568   17.3817 H   0  0  0  0  0  0  0  0  0  0  0  0
    6.9631    0.2317   19.5471 H   0  0  0  0  0  0  0  0  0  0  0  0
    7.6589    1.6601   18.5200 H   0  0  0  0  0  0  0  0  0  0  0  0
    8.7515    1.2064   19.6744 H   0  0  0  0  0  0  0  0  0  0  0  0
    9.7384    1.8552   17.3805 H   0  0  0  0  0  0  0  0  0  0  0  0
    9.4286    2.4854   15.1883 H   0  0  0  0  0  0  0  0  0  0  0  0
   11.1552    3.5662   13.8249 H   0  0  0  0  0  0  0  0  0  0  0  0
   13.2683    2.3953   13.2997 H   0  0  0  0  0  0  0  0  0  0  0  0
   14.7561   -0.1009   13.7101 H   0  0  0  0  0  0  0  0  0  0  0  0
   13.9776   -2.4478   14.8180 H   0  0  0  0  0  0  0  0  0  0  0  0
   10.4197   -2.5749   14.9710 H   0  0  0  0  0  0  0  0  0  0  0  0
   11.9171   -3.4796   15.2307 H   0  0  0  0  0  0  0  0  0  0  0  0
   11.2577   -2.5442   16.5880 H   0  0  0  0  0  0  0  0  0  0  0  0
    6.2485   -0.8257   20.9924 H   0  0  0  0  0  0  0  0  0  0  0  0
    4.8185   -1.5109   23.7095 H   0  0  0  0  0  0  0  0  0  0  0  0
    5.3748   -5.0987   25.8061 H   0  0  0  0  0  0  0  0  0  0  0  0
    6.3723   -5.5048   23.4920 H   0  0  0  0  0  0  0  0  0  0  0  0
  1  2  1  0
  2  3  1  0
  3  4  1  0
  4  5  1  0
  5  6  2  0
  5  7  1  0
  7  8  2  0
  8  9  1  0
  9 10  2  0
 10 11  1  0
 11 12  1  0
 12 13  2  0
 13 14  1  0
 14 15  1  0
 14 16  1  0
  2 17  1  0
 17 18  1  0
 18 19  2  0
 18 20  1  0
 20 21  2  0
 21 22  1  0
 22 23  2  0
 23 24  1  0
 16  7  1  0
 24 20  1  0
 16 11  2  0
  1 25  1  0
  1 26  1  0
  1 27  1  0
  2 28  1  0
  3 29  1  0
  3 30  1  0
  4 31  1  0
  8 32  1  0
  9 33  1  0
 10 34  1  0
 12 35  1  0
 13 36  1  0
 15 37  1  0
 15 38  1  0
 15 39  1  0
 17 40  1  0
 21 41  1  0
 23 42  1  0
 24 43  1  0
M  END
>  <Energy>  (765) 
305.76296433717209

>  <compound_id>  (765) 
25230

>  <target_id>  (765) 
1

>  <reference_id>  (765) 
116

>  <inspiration_ids>  (765) 
[93, 116]

>  <energy_score>  (765) 
280.7229524797103

>  <distance_score>  (765) 
8.354042891808456

>  <path>  (765) 
/opt/xchem-fragalysis-2/maxwin/BulkDock/SCRATCH/511015/C25230-P116/C25230-P116.minimised.mol

>  <scratch_subdir>  (765) 
/opt/xchem-fragalysis-2/maxwin/BulkDock/SCRATCH/511015/C25230-P116

>  <fragmenstein_runtime>  (765) 
14.095653057098389

>  <fragmenstein_outcome>  (765) 
too moved

>  <fragmenstein_mode>  (765) 
expansion

>  <fragmenstein_error>  (765) 


$$$$
C25233-P93
     RDKit          3D

 43 45  0  0  0  0  0  0  0  0999 V2000
    7.0173   -4.1370   23.1512 C   0  0  0  0  0  0  0  0  0  0  0  0
    7.4760   -5.4125   22.5077 C   0  0  0  0  0  0  0  0  0  0  0  0
    8.3126   -4.8418   20.6650 C   0  0  0  0  0  0  0  0  0  0  0  0
   10.3416   -5.2275   20.4555 N   0  0  0  0  0  0  0  0  0  0  0  0
   11.4296   -5.1823   19.0267 C   0  0  0  0  0  0  0  0  0  0  0  0
   11.1571   -5.0007   17.7945 O   0  0  0  0  0  0  0  0  0  0  0  0
   12.9353   -5.2479   19.3432 C   0  0  0  0  0  0  0  0  0  0  0  0
   13.6814   -4.5464   18.3493 C   0  0  0  0  0  0  0  0  0  0  0  0
   14.9951   -4.1312   18.5370 C   0  0  0  0  0  0  0  0  0  0  0  0
   15.5766   -4.3669   19.7837 C   0  0  0  0  0  0  0  0  0  0  0  0
   16.8532   -4.0577   20.3187 C   0  0  0  0  0  0  0  0  0  0  0  0
   16.8643   -4.4796   21.6255 C   0  0  0  0  0  0  0  0  0  0  0  0
   15.6397   -5.0266   21.9038 N   0  0  0  0  0  0  0  0  0  0  0  0
   15.2504   -5.5473   23.1960 C   0  0  0  0  0  0  0  0  0  0  0  0
   14.8290   -4.9955   20.7865 C   0  0  0  0  0  0  0  0  0  0  0  0
   13.4957   -5.4256   20.6040 C   0  0  0  0  0  0  0  0  0  0  0  0
    6.8982   -6.8318   23.4097 N   0  0  0  0  0  0  0  0  0  0  0  0
    7.6930   -7.8580   24.4503 C   0  0  0  0  0  0  0  0  0  0  0  0
    8.8694   -7.8568   24.7166 O   0  0  0  0  0  0  0  0  0  0  0  0
    6.9951   -8.8529   25.2861 C   0  0  0  0  0  0  0  0  0  0  0  0
    6.8809   -8.8254   26.6791 C   0  0  0  0  0  0  0  0  0  0  0  0
    6.7492  -10.0666   27.2457 N   0  0  0  0  0  0  0  0  0  0  0  0
    7.0329  -10.8941   26.2710 C   0  0  0  0  0  0  0  0  0  0  0  0
    7.1384  -10.2252   25.0793 N   0  0  0  0  0  0  0  0  0  0  0  0
    7.1835   -3.8350   24.1524 H   0  0  0  0  0  0  0  0  0  0  0  0
    6.3905   -3.3701   22.7454 H   0  0  0  0  0  0  0  0  0  0  0  0
    7.6291   -3.6577   22.4806 H   0  0  0  0  0  0  0  0  0  0  0  0
    8.1843   -5.4365   23.2654 H   0  0  0  0  0  0  0  0  0  0  0  0
    8.2289   -3.8079   20.8600 H   0  0  0  0  0  0  0  0  0  0  0  0
    7.4882   -5.0031   19.9515 H   0  0  0  0  0  0  0  0  0  0  0  0
   10.8649   -5.2951   21.2476 H   0  0  0  0  0  0  0  0  0  0  0  0
   13.2240   -4.2970   17.3901 H   0  0  0  0  0  0  0  0  0  0  0  0
   15.5326   -3.6127   17.7493 H   0  0  0  0  0  0  0  0  0  0  0  0
   17.6696   -3.5655   19.8069 H   0  0  0  0  0  0  0  0  0  0  0  0
   17.6393   -4.4197   22.3786 H   0  0  0  0  0  0  0  0  0  0  0  0
   14.3954   -4.9701   23.5575 H   0  0  0  0  0  0  0  0  0  0  0  0
   16.0839   -5.4523   23.8967 H   0  0  0  0  0  0  0  0  0  0  0  0
   14.9850   -6.6010   23.0779 H   0  0  0  0  0  0  0  0  0  0  0  0
   12.9364   -5.8345   21.4319 H   0  0  0  0  0  0  0  0  0  0  0  0
    5.9258   -7.1283   23.3247 H   0  0  0  0  0  0  0  0  0  0  0  0
    7.0494   -7.9797   27.3294 H   0  0  0  0  0  0  0  0  0  0  0  0
    7.1192  -11.9707   26.3454 H   0  0  0  0  0  0  0  0  0  0  0  0
    7.3036  -10.6575   24.1865 H   0  0  0  0  0  0  0  0  0  0  0  0
  1  2  1  0
  2  3  1  0
  3  4  1  0
  4  5  1  0
  5  6  2  0
  5  7  1  0
  7  8  2  0
  8  9  1  0
  9 10  2  0
 10 11  1  0
 11 12  2  0
 12 13  1  0
 13 14  1  0
 13 15  1  0
 15 16  2  0
  2 17  1  0
 17 18  1  0
 18 19  2  0
 18 20  1  0
 20 21  2  0
 21 22  1  0
 22 23  2  0
 23 24  1  0
 16  7  1  0
 24 20  1  0
 15 10  1  0
  1 25  1  0
  1 26  1  0
  1 27  1  0
  2 28  1  0
  3 29  1  0
  3 30  1  0
  4 31  1  0
  8 32  1  0
  9 33  1  0
 11 34  1  0
 12 35  1  0
 14 36  1  0
 14 37  1  0
 14 38  1  0
 16 39  1  0
 17 40  1  0
 21 41  1  0
 23 42  1  0
 24 43  1  0
M  END
>  <Energy>  (766) 
410.68649083802654

>  <compound_id>  (766) 
25233

>  <target_id>  (766) 
1

>  <reference_id>  (766) 
93

>  <inspiration_ids>  (766) 
[93, 116]

>  <energy_score>  (766) 
401.198192904404

>  <distance_score>  (766) 
7.727811435652303

>  <path>  (766) 
/opt/xchem-fragalysis-2/maxwin/BulkDock/SCRATCH/511015/C25233-P93/C25233-P93.minimised.mol

>  <scratch_subdir>  (766) 
/opt/xchem-fragalysis-2/maxwin/BulkDock/SCRATCH/511015/C25233-P93

>  <fragmenstein_runtime>  (766) 
17.569356679916382

>  <fragmenstein_outcome>  (766) 
too moved

>  <fragmenstein_mode>  (766) 
expansion

>  <fragmenstein_error>  (766) 


$$$$
C25233-P116
     RDKit          3D

 43 45  0  0  0  0  0  0  0  0999 V2000
   11.3202   -8.8789   23.3656 C   0  0  0  0  0  0  0  0  0  0  0  0
   11.0368   -7.9635   24.5538 C   0  0  0  0  0  0  0  0  0  0  0  0
   11.7457   -6.5196   24.3288 C   0  0  0  0  0  0  0  0  0  0  0  0
   12.2582   -6.0251   22.9676 N   0  0  0  0  0  0  0  0  0  0  0  0
   13.4781   -5.0806   22.6114 C   0  0  0  0  0  0  0  0  0  0  0  0
   14.3070   -4.6129   23.3053 O   0  0  0  0  0  0  0  0  0  0  0  0
   13.6418   -4.5894   21.1020 C   0  0  0  0  0  0  0  0  0  0  0  0
   12.8286   -4.8974   20.0168 C   0  0  0  0  0  0  0  0  0  0  0  0
   13.0225   -4.3804   18.6896 C   0  0  0  0  0  0  0  0  0  0  0  0
   14.0894   -3.5270   18.4113 C   0  0  0  0  0  0  0  0  0  0  0  0
   14.5736   -2.8558   17.2549 C   0  0  0  0  0  0  0  0  0  0  0  0
   15.7023   -2.1628   17.6237 C   0  0  0  0  0  0  0  0  0  0  0  0
   15.9084   -2.3866   18.9588 N   0  0  0  0  0  0  0  0  0  0  0  0
   17.0025   -1.8344   19.7270 C   0  0  0  0  0  0  0  0  0  0  0  0
   14.9283   -3.2087   19.4706 C   0  0  0  0  0  0  0  0  0  0  0  0
   14.7136   -3.7094   20.7854 C   0  0  0  0  0  0  0  0  0  0  0  0
    9.5975   -8.1697   25.1232 N   0  0  0  0  0  0  0  0  0  0  0  0
    8.8547   -9.4965   25.5925 C   0  0  0  0  0  0  0  0  0  0  0  0
    9.2003  -10.6211   25.5398 O   0  0  0  0  0  0  0  0  0  0  0  0
    7.4990   -9.3832   26.2951 C   0  0  0  0  0  0  0  0  0  0  0  0
    6.4456   -8.4858   26.4966 C   0  0  0  0  0  0  0  0  0  0  0  0
    5.4470   -8.9798   27.3501 N   0  0  0  0  0  0  0  0  0  0  0  0
    5.8591  -10.1736   27.6882 C   0  0  0  0  0  0  0  0  0  0  0  0
    6.9465  -10.5244   26.9454 N   0  0  0  0  0  0  0  0  0  0  0  0
   10.8650   -8.5006   22.4489 H   0  0  0  0  0  0  0  0  0  0  0  0
   10.9527   -9.8931   23.5433 H   0  0  0  0  0  0  0  0  0  0  0  0
   12.3988   -8.9502   23.1861 H   0  0  0  0  0  0  0  0  0  0  0  0
   11.6122   -8.3964   25.3852 H   0  0  0  0  0  0  0  0  0  0  0  0
   11.1277   -5.7246   24.7599 H   0  0  0  0  0  0  0  0  0  0  0  0
   12.6552   -6.5241   24.9442 H   0  0  0  0  0  0  0  0  0  0  0  0
   11.6940   -6.1744   22.1434 H   0  0  0  0  0  0  0  0  0  0  0  0
   11.9738   -5.5361   20.1863 H   0  0  0  0  0  0  0  0  0  0  0  0
   12.3369   -4.6350   17.8897 H   0  0  0  0  0  0  0  0  0  0  0  0
   14.1481   -2.8962   16.2612 H   0  0  0  0  0  0  0  0  0  0  0  0
   16.3696   -1.5384   17.0447 H   0  0  0  0  0  0  0  0  0  0  0  0
   17.5841   -2.6605   20.1441 H   0  0  0  0  0  0  0  0  0  0  0  0
   17.6372   -1.2273   19.0764 H   0  0  0  0  0  0  0  0  0  0  0  0
   16.5860   -1.2117   20.5228 H   0  0  0  0  0  0  0  0  0  0  0  0
   15.3997   -3.4168   21.5789 H   0  0  0  0  0  0  0  0  0  0  0  0
    9.0482   -7.3581   25.3925 H   0  0  0  0  0  0  0  0  0  0  0  0
    6.3480   -7.4868   26.0873 H   0  0  0  0  0  0  0  0  0  0  0  0
    5.4219  -10.8358   28.4233 H   0  0  0  0  0  0  0  0  0  0  0  0
    7.4309  -11.4110   26.9738 H   0  0  0  0  0  0  0  0  0  0  0  0
  1  2  1  0
  2  3  1  0
  3  4  1  0
  4  5  1  0
  5  6  2  0
  5  7  1  0
  7  8  2  0
  8  9  1  0
  9 10  2  0
 10 11  1  0
 11 12  2  0
 12 13  1  0
 13 14  1  0
 13 15  1  0
 15 16  2  0
  2 17  1  0
 17 18  1  0
 18 19  2  0
 18 20  1  0
 20 21  2  0
 21 22  1  0
 22 23  2  0
 23 24  1  0
 16  7  1  0
 24 20  1  0
 15 10  1  0
  1 25  1  0
  1 26  1  0
  1 27  1  0
  2 28  1  0
  3 29  1  0
  3 30  1  0
  4 31  1  0
  8 32  1  0
  9 33  1  0
 11 34  1  0
 12 35  1  0
 14 36  1  0
 14 37  1  0
 14 38  1  0
 16 39  1  0
 17 40  1  0
 21 41  1  0
 23 42  1  0
 24 43  1  0
M  END
>  <Energy>  (767) 
73.459706446057282

>  <compound_id>  (767) 
25233

>  <target_id>  (767) 
1

>  <reference_id>  (767) 
116

>  <inspiration_ids>  (767) 
[93, 116]

>  <energy_score>  (767) 
54.98841698637693

>  <distance_score>  (767) 
7.868882418368804

>  <path>  (767) 
/opt/xchem-fragalysis-2/maxwin/BulkDock/SCRATCH/511015/C25233-P116/C25233-P116.minimised.mol

>  <scratch_subdir>  (767) 
/opt/xchem-fragalysis-2/maxwin/BulkDock/SCRATCH/511015/C25233-P116

>  <fragmenstein_runtime>  (767) 
19.279693841934204

>  <fragmenstein_outcome>  (767) 
too moved

>  <fragmenstein_mode>  (767) 
expansion

>  <fragmenstein_error>  (767) 


$$$$
C25234-P93
     RDKit          3D

 30 32  0  0  0  0  0  0  0  0999 V2000
   12.0468   -4.4213   22.7795 C   0  0  0  0  0  0  0  0  0  0  0  0
   11.6452   -4.7576   21.3581 N   0  0  0  0  0  0  0  0  0  0  0  0
   12.7656   -4.7708   20.5605 C   0  0  0  0  0  0  0  0  0  0  0  0
   12.3081   -5.2297   19.4143 C   0  0  0  0  0  0  0  0  0  0  0  0
   10.8505   -5.6773   19.6970 C   0  0  0  0  0  0  0  0  0  0  0  0
    9.4859   -6.1773   19.1850 C   0  0  0  0  0  0  0  0  0  0  0  0
    7.4892   -6.4129   19.1498 C   0  0  0  0  0  0  0  0  0  0  0  0
    7.1376   -5.2635   19.9234 C   0  0  0  0  0  0  0  0  0  0  0  0
    8.1608   -4.9909   21.2029 C   0  0  0  0  0  0  0  0  0  0  0  0
    7.3067   -6.0343   22.6848 N   0  0  0  0  0  0  0  0  0  0  0  0
    8.0274   -7.1118   23.9967 C   0  0  0  0  0  0  0  0  0  0  0  0
    9.2272   -7.3054   24.2483 O   0  0  0  0  0  0  0  0  0  0  0  0
    7.1720   -8.0538   24.8941 C   0  0  0  0  0  0  0  0  0  0  0  0
    5.9619   -8.4450   25.3063 C   0  0  0  0  0  0  0  0  0  0  0  0
    5.9355   -8.9537   26.5915 N   0  0  0  0  0  0  0  0  0  0  0  0
    7.1777   -9.2618   26.8284 C   0  0  0  0  0  0  0  0  0  0  0  0
    7.9464   -8.8434   25.7906 N   0  0  0  0  0  0  0  0  0  0  0  0
   10.0775   -5.3966   20.6337 C   0  0  0  0  0  0  0  0  0  0  0  0
   13.1409   -4.3539   22.8255 H   0  0  0  0  0  0  0  0  0  0  0  0
   11.7964   -5.2064   23.4935 H   0  0  0  0  0  0  0  0  0  0  0  0
   11.6814   -3.4489   23.0761 H   0  0  0  0  0  0  0  0  0  0  0  0
   13.7171   -4.3446   20.8515 H   0  0  0  0  0  0  0  0  0  0  0  0
   12.8354   -5.1674   18.4690 H   0  0  0  0  0  0  0  0  0  0  0  0
   10.1350   -5.9355   18.3388 H   0  0  0  0  0  0  0  0  0  0  0  0
    6.8940   -6.5875   18.2435 H   0  0  0  0  0  0  0  0  0  0  0  0
    6.3255   -4.6379   19.5767 H   0  0  0  0  0  0  0  0  0  0  0  0
    6.3234   -6.1418   22.6697 H   0  0  0  0  0  0  0  0  0  0  0  0
    5.1093   -8.1878   24.7418 H   0  0  0  0  0  0  0  0  0  0  0  0
    7.5746   -9.7574   27.7048 H   0  0  0  0  0  0  0  0  0  0  0  0
    8.9584   -8.8620   25.7643 H   0  0  0  0  0  0  0  0  0  0  0  0
  1  2  1  0
  2  3  1  0
  3  4  2  0
  4  5  1  0
  5  6  2  0
  6  7  1  0
  7  8  2  0
  8  9  1  0
  9 10  1  0
 10 11  1  0
 11 12  2  0
 11 13  1  0
 13 14  2  0
 14 15  1  0
 15 16  2  0
 16 17  1  0
  9 18  2  0
 18  2  1  0
 18  5  1  0
 17 13  1  0
  1 19  1  0
  1 20  1  0
  1 21  1  0
  3 22  1  0
  4 23  1  0
  6 24  1  0
  7 25  1  0
  8 26  1  0
 10 27  1  0
 14 28  1  0
 16 29  1  0
 17 30  1  0
M  END
>  <Energy>  (768) 
746.59270707047847

>  <compound_id>  (768) 
25234

>  <target_id>  (768) 
1

>  <reference_id>  (768) 
93

>  <inspiration_ids>  (768) 
[93, 116]

>  <energy_score>  (768) 
729.3912004565453

>  <distance_score>  (768) 
7.986025153127711

>  <path>  (768) 
/opt/xchem-fragalysis-2/maxwin/BulkDock/SCRATCH/511015/C25234-P93/C25234-P93.minimised.mol

>  <scratch_subdir>  (768) 
/opt/xchem-fragalysis-2/maxwin/BulkDock/SCRATCH/511015/C25234-P93

>  <fragmenstein_runtime>  (768) 
7.921719074249268

>  <fragmenstein_outcome>  (768) 
too moved

>  <fragmenstein_mode>  (768) 
expansion

>  <fragmenstein_error>  (768) 


$$$$
C25234-P116
     RDKit          3D

 30 32  0  0  0  0  0  0  0  0999 V2000
   14.5482   -4.3201   24.5928 C   0  0  0  0  0  0  0  0  0  0  0  0
   14.6260   -3.9686   23.1907 N   0  0  0  0  0  0  0  0  0  0  0  0
   15.5531   -3.0860   22.6815 C   0  0  0  0  0  0  0  0  0  0  0  0
   15.3725   -2.9818   21.3357 C   0  0  0  0  0  0  0  0  0  0  0  0
   14.3030   -3.8547   21.0235 C   0  0  0  0  0  0  0  0  0  0  0  0
   13.7623   -4.0894   19.7767 C   0  0  0  0  0  0  0  0  0  0  0  0
   12.7129   -4.9569   19.7945 C   0  0  0  0  0  0  0  0  0  0  0  0
   12.2270   -5.6169   20.9750 C   0  0  0  0  0  0  0  0  0  0  0  0
   12.7426   -5.4941   22.2853 C   0  0  0  0  0  0  0  0  0  0  0  0
   11.9451   -6.1603   23.4319 N   0  0  0  0  0  0  0  0  0  0  0  0
   11.1869   -7.6101   23.4910 C   0  0  0  0  0  0  0  0  0  0  0  0
   11.1559   -8.4897   22.6950 O   0  0  0  0  0  0  0  0  0  0  0  0
   10.1583   -7.9722   24.7965 C   0  0  0  0  0  0  0  0  0  0  0  0
    9.6174   -9.2873   25.0620 C   0  0  0  0  0  0  0  0  0  0  0  0
    8.3485   -9.3431   25.6420 N   0  0  0  0  0  0  0  0  0  0  0  0
    8.0411   -8.0936   25.8326 C   0  0  0  0  0  0  0  0  0  0  0  0
    9.1017   -7.2605   25.4646 N   0  0  0  0  0  0  0  0  0  0  0  0
   13.8039   -4.5022   22.2155 C   0  0  0  0  0  0  0  0  0  0  0  0
   14.6630   -5.4029   24.6873 H   0  0  0  0  0  0  0  0  0  0  0  0
   13.5771   -3.9953   24.9748 H   0  0  0  0  0  0  0  0  0  0  0  0
   15.3475   -3.8179   25.1439 H   0  0  0  0  0  0  0  0  0  0  0  0
   16.2667   -2.5992   23.3334 H   0  0  0  0  0  0  0  0  0  0  0  0
   15.9429   -2.3664   20.6536 H   0  0  0  0  0  0  0  0  0  0  0  0
   14.1028   -3.6063   18.8705 H   0  0  0  0  0  0  0  0  0  0  0  0
   12.1991   -5.0198   18.8512 H   0  0  0  0  0  0  0  0  0  0  0  0
   11.3128   -6.1892   20.8927 H   0  0  0  0  0  0  0  0  0  0  0  0
   11.8332   -5.6806   24.3151 H   0  0  0  0  0  0  0  0  0  0  0  0
   10.0738  -10.2069   24.7099 H   0  0  0  0  0  0  0  0  0  0  0  0
    7.1146   -7.6982   26.2305 H   0  0  0  0  0  0  0  0  0  0  0  0
    9.0422   -6.2540   25.5191 H   0  0  0  0  0  0  0  0  0  0  0  0
  1  2  1  0
  2  3  1  0
  3  4  2  0
  4  5  1  0
  5  6  2  0
  6  7  1  0
  7  8  2  0
  8  9  1  0
  9 10  1  0
 10 11  1  0
 11 12  2  0
 11 13  1  0
 13 14  2  0
 14 15  1  0
 15 16  2  0
 16 17  1  0
  9 18  2  0
 18  2  1  0
 18  5  1  0
 17 13  1  0
  1 19  1  0
  1 20  1  0
  1 21  1  0
  3 22  1  0
  4 23  1  0
  6 24  1  0
  7 25  1  0
  8 26  1  0
 10 27  1  0
 14 28  1  0
 16 29  1  0
 17 30  1  0
M  END
>  <Energy>  (769) 
91.204247769635913

>  <compound_id>  (769) 
25234

>  <target_id>  (769) 
1

>  <reference_id>  (769) 
116

>  <inspiration_ids>  (769) 
[93, 116]

>  <energy_score>  (769) 
62.997995655218574

>  <distance_score>  (769) 
8.62832393115155

>  <path>  (769) 
/opt/xchem-fragalysis-2/maxwin/BulkDock/SCRATCH/511015/C25234-P116/C25234-P116.minimised.mol

>  <scratch_subdir>  (769) 
/opt/xchem-fragalysis-2/maxwin/BulkDock/SCRATCH/511015/C25234-P116

>  <fragmenstein_runtime>  (769) 
3.691955089569092

>  <fragmenstein_outcome>  (769) 
too moved

>  <fragmenstein_mode>  (769) 
expansion

>  <fragmenstein_error>  (769) 


$$$$
C25228-P93
     RDKit          3D

 45 47  0  0  0  0  0  0  0  0999 V2000
    1.9600  -13.0743   23.5121 C   0  0  0  0  0  0  0  0  0  0  0  0
    0.9001  -14.0321   22.8455 C   0  0  0  0  0  0  0  0  0  0  0  0
   -0.7473  -14.6196   24.0990 C   0  0  0  0  0  0  0  0  0  0  0  0
   -2.2350  -15.8851   24.8373 C   0  0  0  0  0  0  0  0  0  0  0  0
   -2.1456  -17.5065   25.3641 C   0  0  0  0  0  0  0  0  0  0  0  0
   -1.0625  -18.2219   25.6655 N   0  0  0  0  0  0  0  0  0  0  0  0
   -1.3316  -17.7160   26.7839 C   0  0  0  0  0  0  0  0  0  0  0  0
   -2.4468  -16.6038   26.5665 N   0  0  0  0  0  0  0  0  0  0  0  0
    2.4205  -14.1946   21.4482 C   0  0  0  0  0  0  0  0  0  0  0  0
    2.3951  -15.2146   20.7763 O   0  0  0  0  0  0  0  0  0  0  0  0
    3.6410  -12.8388   21.2520 N   0  0  0  0  0  0  0  0  0  0  0  0
    5.2492  -12.6578   20.0954 C   0  0  0  0  0  0  0  0  0  0  0  0
    6.5194  -11.1305   19.4022 C   0  0  0  0  0  0  0  0  0  0  0  0
    8.3092  -10.2300   18.8756 C   0  0  0  0  0  0  0  0  0  0  0  0
    9.0265  -10.6354   17.6253 C   0  0  0  0  0  0  0  0  0  0  0  0
   10.3957  -10.9957   17.8284 N   0  0  0  0  0  0  0  0  0  0  0  0
   11.1149  -11.8405   16.8928 C   0  0  0  0  0  0  0  0  0  0  0  0
   11.0288  -10.3293   18.9353 C   0  0  0  0  0  0  0  0  0  0  0  0
   12.3620  -10.7751   19.8303 C   0  0  0  0  0  0  0  0  0  0  0  0
   12.7669  -10.1625   21.1197 C   0  0  0  0  0  0  0  0  0  0  0  0
   12.0633   -9.0043   21.6095 C   0  0  0  0  0  0  0  0  0  0  0  0
   10.7571   -8.4992   20.8760 C   0  0  0  0  0  0  0  0  0  0  0  0
    9.8591   -9.0529   19.4786 C   0  0  0  0  0  0  0  0  0  0  0  0
    1.8982  -12.8587   24.5647 H   0  0  0  0  0  0  0  0  0  0  0  0
    1.9189  -12.1260   23.0122 H   0  0  0  0  0  0  0  0  0  0  0  0
    2.9616  -13.4882   23.4743 H   0  0  0  0  0  0  0  0  0  0  0  0
    0.3004  -13.4046   22.1732 H   0  0  0  0  0  0  0  0  0  0  0  0
   -1.0778  -13.8333   24.7714 H   0  0  0  0  0  0  0  0  0  0  0  0
   -1.2623  -14.8359   23.1495 H   0  0  0  0  0  0  0  0  0  0  0  0
   -2.7418  -18.3366   25.3114 H   0  0  0  0  0  0  0  0  0  0  0  0
   -0.5412  -17.7296   27.4706 H   0  0  0  0  0  0  0  0  0  0  0  0
   -2.3355  -15.8753   27.2558 H   0  0  0  0  0  0  0  0  0  0  0  0
    3.4989  -12.1553   21.9751 H   0  0  0  0  0  0  0  0  0  0  0  0
    4.6801  -12.7808   19.1754 H   0  0  0  0  0  0  0  0  0  0  0  0
    5.2707  -11.8312   20.7936 H   0  0  0  0  0  0  0  0  0  0  0  0
    6.2210  -11.2833   18.3552 H   0  0  0  0  0  0  0  0  0  0  0  0
    7.1830  -11.7096   19.9604 H   0  0  0  0  0  0  0  0  0  0  0  0
    8.6064  -11.0073   16.6937 H   0  0  0  0  0  0  0  0  0  0  0  0
   11.9915  -12.2716   17.3780 H   0  0  0  0  0  0  0  0  0  0  0  0
   10.4521  -12.6419   16.5588 H   0  0  0  0  0  0  0  0  0  0  0  0
   11.4157  -11.2191   16.0456 H   0  0  0  0  0  0  0  0  0  0  0  0
   12.9753  -11.5649   19.3909 H   0  0  0  0  0  0  0  0  0  0  0  0
   13.6701  -10.5127   21.6128 H   0  0  0  0  0  0  0  0  0  0  0  0
   12.4460   -8.4284   22.4487 H   0  0  0  0  0  0  0  0  0  0  0  0
   10.6660   -7.4828   21.1198 H   0  0  0  0  0  0  0  0  0  0  0  0
  1  2  1  0
  2  3  1  0
  3  4  1  0
  4  5  2  0
  5  6  1  0
  6  7  2  0
  7  8  1  0
  2  9  1  0
  9 10  2  0
  9 11  1  0
 11 12  1  0
 12 13  1  0
 13 14  1  0
 14 15  2  0
 15 16  1  0
 16 17  1  0
 16 18  1  0
 18 19  2  0
 19 20  1  0
 20 21  2  0
 21 22  1  0
 22 23  2  0
  8  4  1  0
 23 14  1  0
 23 18  1  0
  1 24  1  0
  1 25  1  0
  1 26  1  0
  2 27  1  0
  3 28  1  0
  3 29  1  0
  5 30  1  0
  7 31  1  0
  8 32  1  0
 11 33  1  0
 12 34  1  0
 12 35  1  0
 13 36  1  0
 13 37  1  0
 15 38  1  0
 17 39  1  0
 17 40  1  0
 17 41  1  0
 19 42  1  0
 20 43  1  0
 21 44  1  0
 22 45  1  0
M  END
>  <Energy>  (770) 
1370.7540352566193

>  <compound_id>  (770) 
25228

>  <target_id>  (770) 
1

>  <reference_id>  (770) 
93

>  <inspiration_ids>  (770) 
[93, 116]

>  <energy_score>  (770) 
1326.7986794015278

>  <distance_score>  (770) 
8.257255863423772

>  <path>  (770) 
/opt/xchem-fragalysis-2/maxwin/BulkDock/SCRATCH/511015/C25228-P93/C25228-P93.minimised.mol

>  <scratch_subdir>  (770) 
/opt/xchem-fragalysis-2/maxwin/BulkDock/SCRATCH/511015/C25228-P93

>  <fragmenstein_runtime>  (770) 
28.558181047439575

>  <fragmenstein_outcome>  (770) 
too moved

>  <fragmenstein_mode>  (770) 
expansion

>  <fragmenstein_error>  (770) 


$$$$
C25228-P116
     RDKit          3D

 45 47  0  0  0  0  0  0  0  0999 V2000
    9.3535   -7.9773   27.2118 C   0  0  0  0  0  0  0  0  0  0  0  0
    8.8082   -8.5932   25.9305 C   0  0  0  0  0  0  0  0  0  0  0  0
    7.8039   -9.9139   26.3252 C   0  0  0  0  0  0  0  0  0  0  0  0
    6.6066   -9.8214   27.2579 C   0  0  0  0  0  0  0  0  0  0  0  0
    6.1911  -10.6595   28.2847 C   0  0  0  0  0  0  0  0  0  0  0  0
    4.9507  -10.3857   28.7450 N   0  0  0  0  0  0  0  0  0  0  0  0
    4.6493   -9.3254   28.0649 C   0  0  0  0  0  0  0  0  0  0  0  0
    5.5794   -8.9284   27.1690 N   0  0  0  0  0  0  0  0  0  0  0  0
   10.1319   -8.9011   24.8785 C   0  0  0  0  0  0  0  0  0  0  0  0
   10.3427  -10.0415   24.6336 O   0  0  0  0  0  0  0  0  0  0  0  0
   10.8278   -7.5601   24.2949 N   0  0  0  0  0  0  0  0  0  0  0  0
   12.0992   -7.3818   23.2772 C   0  0  0  0  0  0  0  0  0  0  0  0
   12.3284   -5.9936   22.3230 C   0  0  0  0  0  0  0  0  0  0  0  0
   13.5960   -5.7739   21.2704 C   0  0  0  0  0  0  0  0  0  0  0  0
   14.7968   -6.4625   21.2627 C   0  0  0  0  0  0  0  0  0  0  0  0
   15.5419   -6.1347   20.1452 N   0  0  0  0  0  0  0  0  0  0  0  0
   16.7927   -6.7690   19.7938 C   0  0  0  0  0  0  0  0  0  0  0  0
   14.9186   -5.1772   19.3876 C   0  0  0  0  0  0  0  0  0  0  0  0
   15.2558   -4.5879   18.1396 C   0  0  0  0  0  0  0  0  0  0  0  0
   14.3985   -3.6537   17.5582 C   0  0  0  0  0  0  0  0  0  0  0  0
   13.3087   -3.2264   18.2758 C   0  0  0  0  0  0  0  0  0  0  0  0
   13.0599   -3.7870   19.5471 C   0  0  0  0  0  0  0  0  0  0  0  0
   13.7669   -4.8588   20.0992 C   0  0  0  0  0  0  0  0  0  0  0  0
    9.9791   -8.6973   27.7497 H   0  0  0  0  0  0  0  0  0  0  0  0
    9.9710   -7.0996   26.9990 H   0  0  0  0  0  0  0  0  0  0  0  0
    8.5422   -7.6627   27.8751 H   0  0  0  0  0  0  0  0  0  0  0  0
    8.1740   -7.8658   25.4096 H   0  0  0  0  0  0  0  0  0  0  0  0
    8.4835  -10.6818   26.7184 H   0  0  0  0  0  0  0  0  0  0  0  0
    7.4474  -10.3004   25.3609 H   0  0  0  0  0  0  0  0  0  0  0  0
    6.7434  -11.4657   28.7049 H   0  0  0  0  0  0  0  0  0  0  0  0
    3.6811   -8.9288   28.0753 H   0  0  0  0  0  0  0  0  0  0  0  0
    5.4722   -8.1790   26.4939 H   0  0  0  0  0  0  0  0  0  0  0  0
   10.4639   -6.7473   24.7809 H   0  0  0  0  0  0  0  0  0  0  0  0
   12.9773   -7.4888   23.9225 H   0  0  0  0  0  0  0  0  0  0  0  0
   12.0551   -8.2528   22.6152 H   0  0  0  0  0  0  0  0  0  0  0  0
   11.4449   -5.9086   21.6812 H   0  0  0  0  0  0  0  0  0  0  0  0
   12.3475   -5.1325   23.0016 H   0  0  0  0  0  0  0  0  0  0  0  0
   15.1568   -7.2288   21.9361 H   0  0  0  0  0  0  0  0  0  0  0  0
   17.0957   -7.4521   20.5914 H   0  0  0  0  0  0  0  0  0  0  0  0
   16.6518   -7.3259   18.8643 H   0  0  0  0  0  0  0  0  0  0  0  0
   17.5522   -5.9929   19.6689 H   0  0  0  0  0  0  0  0  0  0  0  0
   16.1510   -4.9027   17.6130 H   0  0  0  0  0  0  0  0  0  0  0  0
   14.6212   -3.2408   16.5803 H   0  0  0  0  0  0  0  0  0  0  0  0
   12.6626   -2.4610   17.8689 H   0  0  0  0  0  0  0  0  0  0  0  0
   12.2956   -3.4483   20.2146 H   0  0  0  0  0  0  0  0  0  0  0  0
  1  2  1  0
  2  3  1  0
  3  4  1  0
  4  5  2  0
  5  6  1  0
  6  7  2  0
  7  8  1  0
  2  9  1  0
  9 10  2  0
  9 11  1  0
 11 12  1  0
 12 13  1  0
 13 14  1  0
 14 15  2  0
 15 16  1  0
 16 17  1  0
 16 18  1  0
 18 19  2  0
 19 20  1  0
 20 21  2  0
 21 22  1  0
 22 23  2  0
  8  4  1  0
 23 14  1  0
 23 18  1  0
  1 24  1  0
  1 25  1  0
  1 26  1  0
  2 27  1  0
  3 28  1  0
  3 29  1  0
  5 30  1  0
  7 31  1  0
  8 32  1  0
 11 33  1  0
 12 34  1  0
 12 35  1  0
 13 36  1  0
 13 37  1  0
 15 38  1  0
 17 39  1  0
 17 40  1  0
 17 41  1  0
 19 42  1  0
 20 43  1  0
 21 44  1  0
 22 45  1  0
M  END
>  <Energy>  (771) 
104.68637295205366

>  <compound_id>  (771) 
25228

>  <target_id>  (771) 
1

>  <reference_id>  (771) 
116

>  <inspiration_ids>  (771) 
[93, 116]

>  <energy_score>  (771) 
52.0384218738638

>  <distance_score>  (771) 
6.199629639957014

>  <path>  (771) 
/opt/xchem-fragalysis-2/maxwin/BulkDock/SCRATCH/511015/C25228-P116/C25228-P116.minimised.mol

>  <scratch_subdir>  (771) 
/opt/xchem-fragalysis-2/maxwin/BulkDock/SCRATCH/511015/C25228-P116

>  <fragmenstein_runtime>  (771) 
9.890281677246094

>  <fragmenstein_outcome>  (771) 
too moved

>  <fragmenstein_mode>  (771) 
expansion

>  <fragmenstein_error>  (771) 


$$$$
C25235-P93
     RDKit          3D

 42 44  0  0  0  0  0  0  0  0999 V2000
    6.1034  -11.9096   27.2561 C   0  0  0  0  0  0  0  0  0  0  0  0
    6.2152  -12.8317   25.9948 C   0  0  0  0  0  0  0  0  0  0  0  0
    4.7613  -14.0506   25.5047 C   0  0  0  0  0  0  0  0  0  0  0  0
    4.9219  -15.5395   24.6576 C   0  0  0  0  0  0  0  0  0  0  0  0
    5.7158  -16.6895   24.6735 C   0  0  0  0  0  0  0  0  0  0  0  0
    5.2346  -17.7022   23.8806 N   0  0  0  0  0  0  0  0  0  0  0  0
    4.3233  -17.1358   23.1431 C   0  0  0  0  0  0  0  0  0  0  0  0
    4.2348  -15.8048   23.4403 N   0  0  0  0  0  0  0  0  0  0  0  0
    7.2450  -11.9250   25.0258 C   0  0  0  0  0  0  0  0  0  0  0  0
    6.8002  -11.3631   24.0715 O   0  0  0  0  0  0  0  0  0  0  0  0
    8.6332  -12.0528   25.5007 N   0  0  0  0  0  0  0  0  0  0  0  0
    9.9191  -11.6102   24.8904 C   0  0  0  0  0  0  0  0  0  0  0  0
   10.3912  -10.1266   24.9261 C   0  0  0  0  0  0  0  0  0  0  0  0
   11.8920   -9.8823   24.5955 C   0  0  0  0  0  0  0  0  0  0  0  0
   12.9262  -10.4334   25.3334 C   0  0  0  0  0  0  0  0  0  0  0  0
   14.1274   -9.9449   24.8980 N   0  0  0  0  0  0  0  0  0  0  0  0
   13.9371   -9.0243   23.9033 C   0  0  0  0  0  0  0  0  0  0  0  0
   14.8872   -8.2198   23.2468 C   0  0  0  0  0  0  0  0  0  0  0  0
   14.4344   -7.3136   22.2989 C   0  0  0  0  0  0  0  0  0  0  0  0
   13.0927   -7.2880   21.9916 C   0  0  0  0  0  0  0  0  0  0  0  0
   12.6684   -6.3908   21.0928 F   0  0  0  0  0  0  0  0  0  0  0  0
   12.1694   -8.1641   22.5893 C   0  0  0  0  0  0  0  0  0  0  0  0
   12.5635   -9.0076   23.6369 C   0  0  0  0  0  0  0  0  0  0  0  0
    5.9182  -10.8563   27.0556 H   0  0  0  0  0  0  0  0  0  0  0  0
    5.3758  -12.2573   27.9876 H   0  0  0  0  0  0  0  0  0  0  0  0
    7.0797  -11.8495   27.7567 H   0  0  0  0  0  0  0  0  0  0  0  0
    6.9976  -13.5228   26.3403 H   0  0  0  0  0  0  0  0  0  0  0  0
    4.2052  -14.3179   26.4229 H   0  0  0  0  0  0  0  0  0  0  0  0
    3.9538  -13.6388   24.8889 H   0  0  0  0  0  0  0  0  0  0  0  0
    6.6518  -16.8477   25.1967 H   0  0  0  0  0  0  0  0  0  0  0  0
    3.7266  -17.6081   22.3754 H   0  0  0  0  0  0  0  0  0  0  0  0
    3.5292  -15.2043   23.0403 H   0  0  0  0  0  0  0  0  0  0  0  0
    8.6367  -12.5309   26.3924 H   0  0  0  0  0  0  0  0  0  0  0  0
    9.9028  -11.9508   23.8595 H   0  0  0  0  0  0  0  0  0  0  0  0
   10.6763  -12.2195   25.3961 H   0  0  0  0  0  0  0  0  0  0  0  0
    9.7785   -9.5227   24.2621 H   0  0  0  0  0  0  0  0  0  0  0  0
   10.2193   -9.7353   25.9374 H   0  0  0  0  0  0  0  0  0  0  0  0
   12.9035  -11.1261   26.1650 H   0  0  0  0  0  0  0  0  0  0  0  0
   15.0269  -10.1823   25.2941 H   0  0  0  0  0  0  0  0  0  0  0  0
   15.9413   -8.2716   23.5036 H   0  0  0  0  0  0  0  0  0  0  0  0
   15.1207   -6.6358   21.8025 H   0  0  0  0  0  0  0  0  0  0  0  0
   11.1449   -8.1828   22.2678 H   0  0  0  0  0  0  0  0  0  0  0  0
  1  2  1  0
  2  3  1  0
  3  4  1  0
  4  5  2  0
  5  6  1  0
  6  7  2  0
  7  8  1  0
  2  9  1  0
  9 10  2  0
  9 11  1  0
 11 12  1  0
 12 13  1  0
 13 14  1  0
 14 15  2  0
 15 16  1  0
 16 17  1  0
 17 18  2  0
 18 19  1  0
 19 20  2  0
 20 21  1  0
 20 22  1  0
 22 23  2  0
  8  4  1  0
 23 14  1  0
 23 17  1  0
  1 24  1  0
  1 25  1  0
  1 26  1  0
  2 27  1  0
  3 28  1  0
  3 29  1  0
  5 30  1  0
  7 31  1  0
  8 32  1  0
 11 33  1  0
 12 34  1  0
 12 35  1  0
 13 36  1  0
 13 37  1  0
 15 38  1  0
 16 39  1  0
 18 40  1  0
 19 41  1  0
 22 42  1  0
M  END
>  <Energy>  (772) 
124.72130229591997

>  <compound_id>  (772) 
25235

>  <target_id>  (772) 
1

>  <reference_id>  (772) 
93

>  <inspiration_ids>  (772) 
[93, 116]

>  <energy_score>  (772) 
95.23606086096868

>  <distance_score>  (772) 
9.403938489367091

>  <path>  (772) 
/opt/xchem-fragalysis-2/maxwin/BulkDock/SCRATCH/511015/C25235-P93/C25235-P93.minimised.mol

>  <scratch_subdir>  (772) 
/opt/xchem-fragalysis-2/maxwin/BulkDock/SCRATCH/511015/C25235-P93

>  <fragmenstein_runtime>  (772) 
22.58786368370056

>  <fragmenstein_outcome>  (772) 
too moved

>  <fragmenstein_mode>  (772) 
expansion

>  <fragmenstein_error>  (772) 


$$$$
C25235-P116
     RDKit          3D

 42 44  0  0  0  0  0  0  0  0999 V2000
    9.8636   -8.0498   27.3162 C   0  0  0  0  0  0  0  0  0  0  0  0
    9.2859   -8.3335   25.9278 C   0  0  0  0  0  0  0  0  0  0  0  0
    8.2482   -9.5121   25.9697 C   0  0  0  0  0  0  0  0  0  0  0  0
    7.0953   -9.3937   26.9212 C   0  0  0  0  0  0  0  0  0  0  0  0
    6.1537   -8.4211   27.1875 C   0  0  0  0  0  0  0  0  0  0  0  0
    5.2951   -8.8265   28.1830 N   0  0  0  0  0  0  0  0  0  0  0  0
    5.6665  -10.0458   28.4912 C   0  0  0  0  0  0  0  0  0  0  0  0
    6.7116  -10.4473   27.7187 N   0  0  0  0  0  0  0  0  0  0  0  0
   10.4772   -8.6705   24.9473 C   0  0  0  0  0  0  0  0  0  0  0  0
   10.6126   -9.8143   24.6185 O   0  0  0  0  0  0  0  0  0  0  0  0
   11.2468   -7.4898   24.6003 N   0  0  0  0  0  0  0  0  0  0  0  0
   12.4895   -7.3413   23.8170 C   0  0  0  0  0  0  0  0  0  0  0  0
   12.5506   -6.1871   22.7793 C   0  0  0  0  0  0  0  0  0  0  0  0
   13.8183   -6.1088   21.9321 C   0  0  0  0  0  0  0  0  0  0  0  0
   14.9497   -6.8961   22.0456 C   0  0  0  0  0  0  0  0  0  0  0  0
   15.8154   -6.5891   21.0286 N   0  0  0  0  0  0  0  0  0  0  0  0
   15.2984   -5.5936   20.2404 C   0  0  0  0  0  0  0  0  0  0  0  0
   15.8209   -5.0079   19.0763 C   0  0  0  0  0  0  0  0  0  0  0  0
   15.0565   -4.0326   18.4381 C   0  0  0  0  0  0  0  0  0  0  0  0
   13.8440   -3.6439   18.9784 C   0  0  0  0  0  0  0  0  0  0  0  0
   13.1369   -2.6979   18.3445 F   0  0  0  0  0  0  0  0  0  0  0  0
   13.3548   -4.2075   20.1629 C   0  0  0  0  0  0  0  0  0  0  0  0
   14.0692   -5.2396   20.7981 C   0  0  0  0  0  0  0  0  0  0  0  0
   10.3539   -8.9405   27.7247 H   0  0  0  0  0  0  0  0  0  0  0  0
   10.6127   -7.2520   27.2847 H   0  0  0  0  0  0  0  0  0  0  0  0
    9.0844   -7.7361   28.0174 H   0  0  0  0  0  0  0  0  0  0  0  0
    8.7799   -7.4353   25.5536 H   0  0  0  0  0  0  0  0  0  0  0  0
    7.8410   -9.6470   24.9596 H   0  0  0  0  0  0  0  0  0  0  0  0
    8.7876  -10.4421   26.1975 H   0  0  0  0  0  0  0  0  0  0  0  0
    6.0462   -7.4488   26.7206 H   0  0  0  0  0  0  0  0  0  0  0  0
    5.2135  -10.6887   29.2356 H   0  0  0  0  0  0  0  0  0  0  0  0
    7.1392  -11.3592   27.7379 H   0  0  0  0  0  0  0  0  0  0  0  0
   10.8957   -6.6978   25.1298 H   0  0  0  0  0  0  0  0  0  0  0  0
   13.2916   -7.2152   24.5529 H   0  0  0  0  0  0  0  0  0  0  0  0
   12.6596   -8.3012   23.3157 H   0  0  0  0  0  0  0  0  0  0  0  0
   12.4115   -5.2293   23.2947 H   0  0  0  0  0  0  0  0  0  0  0  0
   11.7137   -6.3064   22.0812 H   0  0  0  0  0  0  0  0  0  0  0  0
   15.2041   -7.6838   22.7422 H   0  0  0  0  0  0  0  0  0  0  0  0
   16.6959   -7.0526   20.8545 H   0  0  0  0  0  0  0  0  0  0  0  0
   16.7701   -5.3292   18.6615 H   0  0  0  0  0  0  0  0  0  0  0  0
   15.4039   -3.5763   17.5177 H   0  0  0  0  0  0  0  0  0  0  0  0
   12.4230   -3.8732   20.5907 H   0  0  0  0  0  0  0  0  0  0  0  0
  1  2  1  0
  2  3  1  0
  3  4  1  0
  4  5  2  0
  5  6  1  0
  6  7  2  0
  7  8  1  0
  2  9  1  0
  9 10  2  0
  9 11  1  0
 11 12  1  0
 12 13  1  0
 13 14  1  0
 14 15  2  0
 15 16  1  0
 16 17  1  0
 17 18  2  0
 18 19  1  0
 19 20  2  0
 20 21  1  0
 20 22  1  0
 22 23  2  0
  8  4  1  0
 23 14  1  0
 23 17  1  0
  1 24  1  0
  1 25  1  0
  1 26  1  0
  2 27  1  0
  3 28  1  0
  3 29  1  0
  5 30  1  0
  7 31  1  0
  8 32  1  0
 11 33  1  0
 12 34  1  0
 12 35  1  0
 13 36  1  0
 13 37  1  0
 15 38  1  0
 16 39  1  0
 18 40  1  0
 19 41  1  0
 22 42  1  0
M  END
>  <Energy>  (773) 
16.065586966939108

>  <compound_id>  (773) 
25235

>  <target_id>  (773) 
1

>  <reference_id>  (773) 
116

>  <inspiration_ids>  (773) 
[93, 116]

>  <energy_score>  (773) 
-13.419654468007252

>  <distance_score>  (773) 
6.872539637843422

>  <path>  (773) 
/opt/xchem-fragalysis-2/maxwin/BulkDock/SCRATCH/511015/C25235-P116/C25235-P116.minimised.mol

>  <scratch_subdir>  (773) 
/opt/xchem-fragalysis-2/maxwin/BulkDock/SCRATCH/511015/C25235-P116

>  <fragmenstein_runtime>  (773) 
18.691625833511353

>  <fragmenstein_outcome>  (773) 
too moved

>  <fragmenstein_mode>  (773) 
expansion

>  <fragmenstein_error>  (773) 


$$$$
C25236-P93
     RDKit          3D

 46 48  0  0  0  0  0  0  0  0999 V2000
   13.0653   -1.0301   14.0621 C   0  0  0  0  0  0  0  0  0  0  0  0
   12.5206    0.2377   14.4122 O   0  0  0  0  0  0  0  0  0  0  0  0
   11.3025    0.2193   15.0344 C   0  0  0  0  0  0  0  0  0  0  0  0
   10.4445   -0.8653   15.1118 C   0  0  0  0  0  0  0  0  0  0  0  0
    9.2067   -0.7725   15.7707 C   0  0  0  0  0  0  0  0  0  0  0  0
    8.9082    0.3564   16.5566 C   0  0  0  0  0  0  0  0  0  0  0  0
    8.0232    0.6797   17.6679 C   0  0  0  0  0  0  0  0  0  0  0  0
    7.1099   -0.1676   18.6445 C   0  0  0  0  0  0  0  0  0  0  0  0
    7.6731   -1.0138   20.1091 C   0  0  0  0  0  0  0  0  0  0  0  0
    8.0175   -2.7583   20.9963 N   0  0  0  0  0  0  0  0  0  0  0  0
    7.1811   -3.5785   22.1023 C   0  0  0  0  0  0  0  0  0  0  0  0
    6.1524   -3.1584   22.4063 O   0  0  0  0  0  0  0  0  0  0  0  0
    7.5460   -5.0714   23.0786 C   0  0  0  0  0  0  0  0  0  0  0  0
    6.9932   -3.9827   24.0040 C   0  0  0  0  0  0  0  0  0  0  0  0
    6.7454   -6.7399   23.6298 C   0  0  0  0  0  0  0  0  0  0  0  0
    7.2598   -8.1527   24.8304 C   0  0  0  0  0  0  0  0  0  0  0  0
    7.3552   -9.5724   24.7568 C   0  0  0  0  0  0  0  0  0  0  0  0
    7.5124  -10.2490   25.9437 N   0  0  0  0  0  0  0  0  0  0  0  0
    7.5331   -9.3243   26.8437 C   0  0  0  0  0  0  0  0  0  0  0  0
    7.4217   -8.1005   26.2710 N   0  0  0  0  0  0  0  0  0  0  0  0
    8.0878    2.0668   17.7468 C   0  0  0  0  0  0  0  0  0  0  0  0
    9.1297    2.5185   16.9854 N   0  0  0  0  0  0  0  0  0  0  0  0
    9.7233    1.4698   16.3395 C   0  0  0  0  0  0  0  0  0  0  0  0
   10.9062    1.4347   15.5861 C   0  0  0  0  0  0  0  0  0  0  0  0
   14.0734   -0.8636   13.6706 H   0  0  0  0  0  0  0  0  0  0  0  0
   12.4791   -1.5110   13.2745 H   0  0  0  0  0  0  0  0  0  0  0  0
   13.1512   -1.6808   14.9392 H   0  0  0  0  0  0  0  0  0  0  0  0
   10.6800   -1.8053   14.6237 H   0  0  0  0  0  0  0  0  0  0  0  0
    8.5142   -1.6005   15.6856 H   0  0  0  0  0  0  0  0  0  0  0  0
    6.3580   -0.6735   18.0302 H   0  0  0  0  0  0  0  0  0  0  0  0
    6.5231    0.6433   19.1158 H   0  0  0  0  0  0  0  0  0  0  0  0
    8.1213   -0.2851   20.7541 H   0  0  0  0  0  0  0  0  0  0  0  0
    6.7553   -0.9006   20.6655 H   0  0  0  0  0  0  0  0  0  0  0  0
    8.9066   -3.1983   20.9107 H   0  0  0  0  0  0  0  0  0  0  0  0
    7.5357   -5.4344   22.0834 H   0  0  0  0  0  0  0  0  0  0  0  0
    6.2473   -3.1625   24.1767 H   0  0  0  0  0  0  0  0  0  0  0  0
    6.1546   -4.6254   24.0964 H   0  0  0  0  0  0  0  0  0  0  0  0
    7.5897   -3.4914   24.8075 H   0  0  0  0  0  0  0  0  0  0  0  0
    5.6926   -6.6147   23.8455 H   0  0  0  0  0  0  0  0  0  0  0  0
    6.6654   -7.1084   22.6375 H   0  0  0  0  0  0  0  0  0  0  0  0
    7.2254  -10.2314   23.9175 H   0  0  0  0  0  0  0  0  0  0  0  0
    7.6550   -9.4705   27.9087 H   0  0  0  0  0  0  0  0  0  0  0  0
    7.5035   -7.2704   26.8429 H   0  0  0  0  0  0  0  0  0  0  0  0
    7.5445    2.7598   18.3771 H   0  0  0  0  0  0  0  0  0  0  0  0
    9.4558    3.4750   16.9506 H   0  0  0  0  0  0  0  0  0  0  0  0
   11.5292    2.3165   15.4752 H   0  0  0  0  0  0  0  0  0  0  0  0
  1  2  1  0
  2  3  1  0
  3  4  2  0
  4  5  1  0
  5  6  2  0
  6  7  1  0
  7  8  1  0
  8  9  1  0
  9 10  1  0
 10 11  1  0
 11 12  2  0
 11 13  1  0
 13 14  1  0
 13 15  1  0
 15 16  1  0
 16 17  2  0
 17 18  1  0
 18 19  2  0
 19 20  1  0
  7 21  2  0
 21 22  1  0
 22 23  1  0
 23 24  2  0
 24  3  1  0
 23  6  1  0
 20 16  1  0
  1 25  1  0
  1 26  1  0
  1 27  1  0
  4 28  1  0
  5 29  1  0
  8 30  1  0
  8 31  1  0
  9 32  1  0
  9 33  1  0
 10 34  1  0
 13 35  1  0
 14 36  1  0
 14 37  1  0
 14 38  1  0
 15 39  1  0
 15 40  1  0
 17 41  1  0
 19 42  1  0
 20 43  1  0
 21 44  1  0
 22 45  1  0
 24 46  1  0
M  END
>  <Energy>  (774) 
511.6548269156973

>  <compound_id>  (774) 
25236

>  <target_id>  (774) 
1

>  <reference_id>  (774) 
93

>  <inspiration_ids>  (774) 
[93, 116]

>  <energy_score>  (774) 
467.39357369713315

>  <distance_score>  (774) 
7.990860596856087

>  <path>  (774) 
/opt/xchem-fragalysis-2/maxwin/BulkDock/SCRATCH/511015/C25236-P93/C25236-P93.minimised.mol

>  <scratch_subdir>  (774) 
/opt/xchem-fragalysis-2/maxwin/BulkDock/SCRATCH/511015/C25236-P93

>  <fragmenstein_runtime>  (774) 
20.6704261302948

>  <fragmenstein_outcome>  (774) 
too moved

>  <fragmenstein_mode>  (774) 
expansion

>  <fragmenstein_error>  (774) 


$$$$
C25236-P116
     RDKit          3D

 46 48  0  0  0  0  0  0  0  0999 V2000
   14.4090   -3.4773   16.4807 C   0  0  0  0  0  0  0  0  0  0  0  0
   15.3896   -3.6958   17.4920 O   0  0  0  0  0  0  0  0  0  0  0  0
   14.8857   -4.2158   18.6559 C   0  0  0  0  0  0  0  0  0  0  0  0
   13.6549   -3.8725   19.1985 C   0  0  0  0  0  0  0  0  0  0  0  0
   13.2078   -4.4636   20.3934 C   0  0  0  0  0  0  0  0  0  0  0  0
   13.9719   -5.4573   21.0278 C   0  0  0  0  0  0  0  0  0  0  0  0
   13.7486   -6.3522   22.1442 C   0  0  0  0  0  0  0  0  0  0  0  0
   12.4652   -6.4992   22.9524 C   0  0  0  0  0  0  0  0  0  0  0  0
   12.3773   -7.7112   23.9124 C   0  0  0  0  0  0  0  0  0  0  0  0
   11.1232   -7.8803   24.6755 N   0  0  0  0  0  0  0  0  0  0  0  0
   10.3838   -9.0778   25.0376 C   0  0  0  0  0  0  0  0  0  0  0  0
   10.5624  -10.2246   24.7406 O   0  0  0  0  0  0  0  0  0  0  0  0
    9.1779   -8.7578   26.0071 C   0  0  0  0  0  0  0  0  0  0  0  0
    9.7407   -8.3842   27.3809 C   0  0  0  0  0  0  0  0  0  0  0  0
    8.2019   -9.9854   26.1068 C   0  0  0  0  0  0  0  0  0  0  0  0
    7.0580   -9.8966   27.0755 C   0  0  0  0  0  0  0  0  0  0  0  0
    6.0743   -8.9585   27.3138 C   0  0  0  0  0  0  0  0  0  0  0  0
    5.2155   -9.3839   28.2987 N   0  0  0  0  0  0  0  0  0  0  0  0
    5.6619  -10.5620   28.6683 C   0  0  0  0  0  0  0  0  0  0  0  0
    6.7416  -10.9364   27.9252 N   0  0  0  0  0  0  0  0  0  0  0  0
   14.9213   -7.0728   22.2744 C   0  0  0  0  0  0  0  0  0  0  0  0
   15.7901   -6.6980   21.2806 N   0  0  0  0  0  0  0  0  0  0  0  0
   15.2241   -5.7356   20.4854 C   0  0  0  0  0  0  0  0  0  0  0  0
   15.7150   -5.1179   19.3244 C   0  0  0  0  0  0  0  0  0  0  0  0
   13.7167   -4.3219   16.3891 H   0  0  0  0  0  0  0  0  0  0  0  0
   14.9332   -3.3716   15.5259 H   0  0  0  0  0  0  0  0  0  0  0  0
   13.8654   -2.5455   16.6667 H   0  0  0  0  0  0  0  0  0  0  0  0
   13.0151   -3.1534   18.7057 H   0  0  0  0  0  0  0  0  0  0  0  0
   12.2557   -4.1883   20.8258 H   0  0  0  0  0  0  0  0  0  0  0  0
   11.6489   -6.5860   22.2260 H   0  0  0  0  0  0  0  0  0  0  0  0
   12.3041   -5.5750   23.5204 H   0  0  0  0  0  0  0  0  0  0  0  0
   13.1727   -7.6441   24.6633 H   0  0  0  0  0  0  0  0  0  0  0  0
   12.5387   -8.6427   23.3577 H   0  0  0  0  0  0  0  0  0  0  0  0
   10.7367   -7.0878   25.1774 H   0  0  0  0  0  0  0  0  0  0  0  0
    8.6269   -7.9041   25.5935 H   0  0  0  0  0  0  0  0  0  0  0  0
   10.2782   -9.2292   27.8253 H   0  0  0  0  0  0  0  0  0  0  0  0
   10.4456   -7.5493   27.3154 H   0  0  0  0  0  0  0  0  0  0  0  0
    8.9465   -8.0826   28.0705 H   0  0  0  0  0  0  0  0  0  0  0  0
    7.7855  -10.1725   25.1079 H   0  0  0  0  0  0  0  0  0  0  0  0
    8.7905  -10.8794   26.3551 H   0  0  0  0  0  0  0  0  0  0  0  0
    5.9271   -8.0064   26.8171 H   0  0  0  0  0  0  0  0  0  0  0  0
    5.2323  -11.1941   29.4339 H   0  0  0  0  0  0  0  0  0  0  0  0
    7.2251  -11.8223   27.9911 H   0  0  0  0  0  0  0  0  0  0  0  0
   15.2079   -7.8518   22.9681 H   0  0  0  0  0  0  0  0  0  0  0  0
   16.7014   -7.1029   21.1198 H   0  0  0  0  0  0  0  0  0  0  0  0
   16.6838   -5.3810   18.9149 H   0  0  0  0  0  0  0  0  0  0  0  0
  1  2  1  0
  2  3  1  0
  3  4  2  0
  4  5  1  0
  5  6  2  0
  6  7  1  0
  7  8  1  0
  8  9  1  0
  9 10  1  0
 10 11  1  0
 11 12  2  0
 11 13  1  0
 13 14  1  0
 13 15  1  0
 15 16  1  0
 16 17  2  0
 17 18  1  0
 18 19  2  0
 19 20  1  0
  7 21  2  0
 21 22  1  0
 22 23  1  0
 23 24  2  0
 24  3  1  0
 23  6  1  0
 20 16  1  0
  1 25  1  0
  1 26  1  0
  1 27  1  0
  4 28  1  0
  5 29  1  0
  8 30  1  0
  8 31  1  0
  9 32  1  0
  9 33  1  0
 10 34  1  0
 13 35  1  0
 14 36  1  0
 14 37  1  0
 14 38  1  0
 15 39  1  0
 15 40  1  0
 17 41  1  0
 19 42  1  0
 20 43  1  0
 21 44  1  0
 22 45  1  0
 24 46  1  0
M  END
>  <Energy>  (775) 
25.989380103738156

>  <compound_id>  (775) 
25236

>  <target_id>  (775) 
1

>  <reference_id>  (775) 
116

>  <inspiration_ids>  (775) 
[93, 116]

>  <energy_score>  (775) 
-18.271873114825212

>  <distance_score>  (775) 
6.899376390798404

>  <path>  (775) 
/opt/xchem-fragalysis-2/maxwin/BulkDock/SCRATCH/511015/C25236-P116/C25236-P116.minimised.mol

>  <scratch_subdir>  (775) 
/opt/xchem-fragalysis-2/maxwin/BulkDock/SCRATCH/511015/C25236-P116

>  <fragmenstein_runtime>  (775) 
16.22852110862732

>  <fragmenstein_outcome>  (775) 
too moved

>  <fragmenstein_mode>  (775) 
expansion

>  <fragmenstein_error>  (775) 


$$$$
C25237-P93
     RDKit          3D

 43 45  0  0  0  0  0  0  0  0999 V2000
    7.1088   -7.8004   24.3109 C   0  0  0  0  0  0  0  0  0  0  0  0
    8.3080   -6.8894   24.4629 N   0  0  0  0  0  0  0  0  0  0  0  0
    7.5025   -6.0131   22.8712 C   0  0  0  0  0  0  0  0  0  0  0  0
    7.8570   -4.8230   21.1977 C   0  0  0  0  0  0  0  0  0  0  0  0
    9.0267   -4.4886   20.2658 N   0  0  0  0  0  0  0  0  0  0  0  0
    9.9681   -5.4522   19.2560 C   0  0  0  0  0  0  0  0  0  0  0  0
    9.6633   -6.4930   19.1592 O   0  0  0  0  0  0  0  0  0  0  0  0
   11.6668   -4.8412   18.3720 C   0  0  0  0  0  0  0  0  0  0  0  0
   11.8429   -4.4320   17.0136 C   0  0  0  0  0  0  0  0  0  0  0  0
   13.0205   -3.8458   16.5492 C   0  0  0  0  0  0  0  0  0  0  0  0
   14.1200   -3.6810   17.3842 C   0  0  0  0  0  0  0  0  0  0  0  0
   14.0312   -4.0835   18.7254 C   0  0  0  0  0  0  0  0  0  0  0  0
   14.9490   -4.0411   19.8079 C   0  0  0  0  0  0  0  0  0  0  0  0
   14.2982   -4.5196   20.9181 C   0  0  0  0  0  0  0  0  0  0  0  0
   13.0208   -4.8416   20.5500 N   0  0  0  0  0  0  0  0  0  0  0  0
   12.8371   -4.6391   19.2015 C   0  0  0  0  0  0  0  0  0  0  0  0
    9.6138   -7.7486   24.6204 C   0  0  0  0  0  0  0  0  0  0  0  0
   10.3900   -8.1581   23.7794 O   0  0  0  0  0  0  0  0  0  0  0  0
    9.7303   -8.1251   26.1336 C   0  0  0  0  0  0  0  0  0  0  0  0
    8.6553   -9.0705   26.6493 C   0  0  0  0  0  0  0  0  0  0  0  0
    8.1869  -10.3034   26.2269 C   0  0  0  0  0  0  0  0  0  0  0  0
    7.1256  -10.7257   26.9911 N   0  0  0  0  0  0  0  0  0  0  0  0
    6.9996   -9.8289   27.9371 C   0  0  0  0  0  0  0  0  0  0  0  0
    7.9016   -8.8130   27.7794 N   0  0  0  0  0  0  0  0  0  0  0  0
    6.1614   -7.3110   24.0674 H   0  0  0  0  0  0  0  0  0  0  0  0
    7.4633   -8.8271   24.1639 H   0  0  0  0  0  0  0  0  0  0  0  0
    6.7827   -8.0635   25.3400 H   0  0  0  0  0  0  0  0  0  0  0  0
    6.9862   -5.2141   23.3908 H   0  0  0  0  0  0  0  0  0  0  0  0
    6.7346   -6.6832   22.4963 H   0  0  0  0  0  0  0  0  0  0  0  0
    7.7112   -3.8049   21.5883 H   0  0  0  0  0  0  0  0  0  0  0  0
    7.2442   -5.1510   20.3065 H   0  0  0  0  0  0  0  0  0  0  0  0
    9.3737   -3.5083   20.1904 H   0  0  0  0  0  0  0  0  0  0  0  0
   11.0502   -4.5013   16.2902 H   0  0  0  0  0  0  0  0  0  0  0  0
   13.0759   -3.5037   15.5200 H   0  0  0  0  0  0  0  0  0  0  0  0
   15.0334   -3.2342   17.0013 H   0  0  0  0  0  0  0  0  0  0  0  0
   15.9666   -3.6737   19.7827 H   0  0  0  0  0  0  0  0  0  0  0  0
   14.6203   -4.6258   21.9454 H   0  0  0  0  0  0  0  0  0  0  0  0
   12.2939   -5.1431   21.1803 H   0  0  0  0  0  0  0  0  0  0  0  0
   10.7116   -8.5898   26.2846 H   0  0  0  0  0  0  0  0  0  0  0  0
    9.7246   -7.1915   26.7088 H   0  0  0  0  0  0  0  0  0  0  0  0
    8.5337  -10.8919   25.3856 H   0  0  0  0  0  0  0  0  0  0  0  0
    6.2990   -9.8720   28.7595 H   0  0  0  0  0  0  0  0  0  0  0  0
    8.0143   -8.0191   28.3958 H   0  0  0  0  0  0  0  0  0  0  0  0
  1  2  1  0
  2  3  1  0
  3  4  1  0
  4  5  1  0
  5  6  1  0
  6  7  2  0
  6  8  1  0
  8  9  2  0
  9 10  1  0
 10 11  2  0
 11 12  1  0
 12 13  1  0
 13 14  2  0
 14 15  1  0
 15 16  1  0
  2 17  1  0
 17 18  2  0
 17 19  1  0
 19 20  1  0
 20 21  2  0
 21 22  1  0
 22 23  2  0
 23 24  1  0
 16  8  1  0
 24 20  1  0
 16 12  2  0
  1 25  1  0
  1 26  1  0
  1 27  1  0
  3 28  1  0
  3 29  1  0
  4 30  1  0
  4 31  1  0
  5 32  1  0
  9 33  1  0
 10 34  1  0
 11 35  1  0
 13 36  1  0
 14 37  1  0
 15 38  1  0
 19 39  1  0
 19 40  1  0
 21 41  1  0
 23 42  1  0
 24 43  1  0
M  END
>  <Energy>  (776) 
451.7802883182996

>  <compound_id>  (776) 
25237

>  <target_id>  (776) 
1

>  <reference_id>  (776) 
93

>  <inspiration_ids>  (776) 
[93, 116]

>  <energy_score>  (776) 
391.6154023712696

>  <distance_score>  (776) 
7.787591545145853

>  <path>  (776) 
/opt/xchem-fragalysis-2/maxwin/BulkDock/SCRATCH/511015/C25237-P93/C25237-P93.minimised.mol

>  <scratch_subdir>  (776) 
/opt/xchem-fragalysis-2/maxwin/BulkDock/SCRATCH/511015/C25237-P93

>  <fragmenstein_runtime>  (776) 
20.7597074508667

>  <fragmenstein_outcome>  (776) 
too moved

>  <fragmenstein_mode>  (776) 
expansion

>  <fragmenstein_error>  (776) 


$$$$
C25237-P116
     RDKit          3D

 43 45  0  0  0  0  0  0  0  0999 V2000
    6.4179   -3.2172   22.1759 C   0  0  0  0  0  0  0  0  0  0  0  0
    5.2792   -2.5609   21.0108 N   0  0  0  0  0  0  0  0  0  0  0  0
    6.7464   -1.5598   20.4203 C   0  0  0  0  0  0  0  0  0  0  0  0
    6.9934   -0.1730   19.0363 C   0  0  0  0  0  0  0  0  0  0  0  0
    8.1131    0.2470   18.1233 N   0  0  0  0  0  0  0  0  0  0  0  0
    8.2488    0.1485   16.6590 C   0  0  0  0  0  0  0  0  0  0  0  0
    7.5357   -0.3637   15.8406 O   0  0  0  0  0  0  0  0  0  0  0  0
    9.4959    0.6579   16.0494 C   0  0  0  0  0  0  0  0  0  0  0  0
    9.7217    2.0269   15.9220 C   0  0  0  0  0  0  0  0  0  0  0  0
   10.8430    2.4957   15.2333 C   0  0  0  0  0  0  0  0  0  0  0  0
   11.8025    1.6150   14.7118 C   0  0  0  0  0  0  0  0  0  0  0  0
   11.6044    0.2310   14.8340 C   0  0  0  0  0  0  0  0  0  0  0  0
   12.3758   -0.9154   14.4932 C   0  0  0  0  0  0  0  0  0  0  0  0
   11.6069   -2.0229   14.7630 C   0  0  0  0  0  0  0  0  0  0  0  0
   10.3833   -1.5736   15.1865 N   0  0  0  0  0  0  0  0  0  0  0  0
   10.4188   -0.2169   15.4237 C   0  0  0  0  0  0  0  0  0  0  0  0
    4.5930   -3.6085   20.4404 C   0  0  0  0  0  0  0  0  0  0  0  0
    4.8287   -4.2632   19.4263 O   0  0  0  0  0  0  0  0  0  0  0  0
    2.8867   -3.6433   21.7485 C   0  0  0  0  0  0  0  0  0  0  0  0
    1.2363   -4.4591   21.4439 C   0  0  0  0  0  0  0  0  0  0  0  0
    0.7113   -5.4566   20.6263 C   0  0  0  0  0  0  0  0  0  0  0  0
   -0.5539   -5.8374   21.0132 N   0  0  0  0  0  0  0  0  0  0  0  0
   -0.8852   -4.9985   21.9572 C   0  0  0  0  0  0  0  0  0  0  0  0
    0.1168   -4.1009   22.1834 N   0  0  0  0  0  0  0  0  0  0  0  0
    7.2398   -3.3755   21.4974 H   0  0  0  0  0  0  0  0  0  0  0  0
    6.3833   -4.1861   22.7399 H   0  0  0  0  0  0  0  0  0  0  0  0
    5.9876   -2.8188   23.1293 H   0  0  0  0  0  0  0  0  0  0  0  0
    7.4545   -1.0517   20.8856 H   0  0  0  0  0  0  0  0  0  0  0  0
    6.0435   -0.8775   20.7914 H   0  0  0  0  0  0  0  0  0  0  0  0
    6.7166    0.7702   19.5292 H   0  0  0  0  0  0  0  0  0  0  0  0
    6.2928   -0.3203   18.1977 H   0  0  0  0  0  0  0  0  0  0  0  0
    8.8570    0.8211   18.4857 H   0  0  0  0  0  0  0  0  0  0  0  0
    9.0063    2.7397   16.3251 H   0  0  0  0  0  0  0  0  0  0  0  0
   10.9920    3.5686   15.1294 H   0  0  0  0  0  0  0  0  0  0  0  0
   12.6908    2.0012   14.2211 H   0  0  0  0  0  0  0  0  0  0  0  0
   13.3650   -0.9255   14.0556 H   0  0  0  0  0  0  0  0  0  0  0  0
   11.7836   -3.0780   14.5991 H   0  0  0  0  0  0  0  0  0  0  0  0
    9.5400   -2.1291   15.2207 H   0  0  0  0  0  0  0  0  0  0  0  0
    2.0930   -2.9608   21.7308 H   0  0  0  0  0  0  0  0  0  0  0  0
    2.9856   -3.0844   22.7280 H   0  0  0  0  0  0  0  0  0  0  0  0
    1.1951   -6.0242   19.8557 H   0  0  0  0  0  0  0  0  0  0  0  0
   -1.8338   -4.9643   22.4772 H   0  0  0  0  0  0  0  0  0  0  0  0
    0.0339   -3.2920   22.7761 H   0  0  0  0  0  0  0  0  0  0  0  0
  1  2  1  0
  2  3  1  0
  3  4  1  0
  4  5  1  0
  5  6  1  0
  6  7  2  0
  6  8  1  0
  8  9  2  0
  9 10  1  0
 10 11  2  0
 11 12  1  0
 12 13  1  0
 13 14  2  0
 14 15  1  0
 15 16  1  0
  2 17  1  0
 17 18  2  0
 17 19  1  0
 19 20  1  0
 20 21  2  0
 21 22  1  0
 22 23  2  0
 23 24  1  0
 16  8  1  0
 24 20  1  0
 16 12  2  0
  1 25  1  0
  1 26  1  0
  1 27  1  0
  3 28  1  0
  3 29  1  0
  4 30  1  0
  4 31  1  0
  5 32  1  0
  9 33  1  0
 10 34  1  0
 11 35  1  0
 13 36  1  0
 14 37  1  0
 15 38  1  0
 19 39  1  0
 19 40  1  0
 21 41  1  0
 23 42  1  0
 24 43  1  0
M  END
>  <Energy>  (777) 
515.91123093501415

>  <compound_id>  (777) 
25237

>  <target_id>  (777) 
1

>  <reference_id>  (777) 
116

>  <inspiration_ids>  (777) 
[93, 116]

>  <energy_score>  (777) 
455.7463449879849

>  <distance_score>  (777) 
7.8588005547491475

>  <path>  (777) 
/opt/xchem-fragalysis-2/maxwin/BulkDock/SCRATCH/511015/C25237-P116/C25237-P116.minimised.mol

>  <scratch_subdir>  (777) 
/opt/xchem-fragalysis-2/maxwin/BulkDock/SCRATCH/511015/C25237-P116

>  <fragmenstein_runtime>  (777) 
12.446771144866943

>  <fragmenstein_outcome>  (777) 
too moved

>  <fragmenstein_mode>  (777) 
expansion

>  <fragmenstein_error>  (777) 


$$$$
C25238-P93
     RDKit          3D

 45 47  0  0  0  0  0  0  0  0999 V2000
    9.5052   -6.3145   19.2190 C   0  0  0  0  0  0  0  0  0  0  0  0
    7.4558   -6.5212   19.3595 C   0  0  0  0  0  0  0  0  0  0  0  0
    7.0683   -5.7719   21.0918 N   0  0  0  0  0  0  0  0  0  0  0  0
    8.7009   -4.8441   20.4123 C   0  0  0  0  0  0  0  0  0  0  0  0
   10.8698   -5.0994   20.6763 C   0  0  0  0  0  0  0  0  0  0  0  0
   11.8561   -4.5613   21.7189 C   0  0  0  0  0  0  0  0  0  0  0  0
   13.1180   -5.1131   21.6350 N   0  0  0  0  0  0  0  0  0  0  0  0
   13.5191   -4.9253   20.3561 C   0  0  0  0  0  0  0  0  0  0  0  0
   14.8056   -4.6424   19.8648 C   0  0  0  0  0  0  0  0  0  0  0  0
   14.9450   -4.2409   18.5385 C   0  0  0  0  0  0  0  0  0  0  0  0
   13.8407   -4.1892   17.7148 C   0  0  0  0  0  0  0  0  0  0  0  0
   12.5833   -4.5494   18.2207 C   0  0  0  0  0  0  0  0  0  0  0  0
   12.3375   -4.9476   19.6191 C   0  0  0  0  0  0  0  0  0  0  0  0
    6.8476   -6.6754   22.7153 C   0  0  0  0  0  0  0  0  0  0  0  0
    7.6793   -6.9458   23.5871 O   0  0  0  0  0  0  0  0  0  0  0  0
    5.0930   -7.5232   23.1911 C   0  0  0  0  0  0  0  0  0  0  0  0
    4.3209   -7.0273   24.2861 C   0  0  0  0  0  0  0  0  0  0  0  0
    4.6774   -9.5902   23.3522 C   0  0  0  0  0  0  0  0  0  0  0  0
    5.4819  -11.1277   22.7817 C   0  0  0  0  0  0  0  0  0  0  0  0
    6.4264  -11.8947   23.4535 C   0  0  0  0  0  0  0  0  0  0  0  0
    6.3002  -13.2195   23.1249 N   0  0  0  0  0  0  0  0  0  0  0  0
    5.2891  -13.2879   22.2931 C   0  0  0  0  0  0  0  0  0  0  0  0
    4.7638  -12.0555   22.0369 N   0  0  0  0  0  0  0  0  0  0  0  0
    9.8645   -5.3808   19.1775 H   0  0  0  0  0  0  0  0  0  0  0  0
   10.1345   -6.1104   18.3895 H   0  0  0  0  0  0  0  0  0  0  0  0
    9.9603   -6.4964   20.1992 H   0  0  0  0  0  0  0  0  0  0  0  0
    6.8017   -5.9821   18.6349 H   0  0  0  0  0  0  0  0  0  0  0  0
    7.0950   -7.5181   19.5519 H   0  0  0  0  0  0  0  0  0  0  0  0
    8.2265   -4.0122   21.0344 H   0  0  0  0  0  0  0  0  0  0  0  0
    8.5029   -4.1872   19.6624 H   0  0  0  0  0  0  0  0  0  0  0  0
   11.6987   -4.0250   22.6470 H   0  0  0  0  0  0  0  0  0  0  0  0
   13.7677   -5.0555   22.4042 H   0  0  0  0  0  0  0  0  0  0  0  0
   15.6667   -4.6404   20.5278 H   0  0  0  0  0  0  0  0  0  0  0  0
   15.9252   -3.9664   18.1572 H   0  0  0  0  0  0  0  0  0  0  0  0
   13.9402   -3.8872   16.6759 H   0  0  0  0  0  0  0  0  0  0  0  0
   11.7584   -4.4929   17.5140 H   0  0  0  0  0  0  0  0  0  0  0  0
    5.8042   -7.6122   24.1011 H   0  0  0  0  0  0  0  0  0  0  0  0
    4.4395   -7.7016   25.0933 H   0  0  0  0  0  0  0  0  0  0  0  0
    3.2578   -7.0205   24.2114 H   0  0  0  0  0  0  0  0  0  0  0  0
    4.7951   -6.0797   24.4060 H   0  0  0  0  0  0  0  0  0  0  0  0
    5.2963   -9.5745   24.2861 H   0  0  0  0  0  0  0  0  0  0  0  0
    3.6533   -9.9855   23.2111 H   0  0  0  0  0  0  0  0  0  0  0  0
    7.1100  -11.5755   24.2290 H   0  0  0  0  0  0  0  0  0  0  0  0
    4.8815  -14.1935   21.8655 H   0  0  0  0  0  0  0  0  0  0  0  0
    3.8805  -11.8925   21.5762 H   0  0  0  0  0  0  0  0  0  0  0  0
  1  2  1  0
  2  3  1  0
  3  4  1  0
  4  5  1  0
  5  6  2  0
  6  7  1  0
  7  8  1  0
  8  9  2  0
  9 10  1  0
 10 11  2  0
 11 12  1  0
 12 13  2  0
  3 14  1  0
 14 15  2  0
 14 16  1  0
 16 17  1  0
 16 18  1  0
 18 19  1  0
 19 20  2  0
 20 21  1  0
 21 22  2  0
 22 23  1  0
 13  5  1  0
 23 19  1  0
 13  8  1  0
  1 24  1  0
  1 25  1  0
  1 26  1  0
  2 27  1  0
  2 28  1  0
  4 29  1  0
  4 30  1  0
  6 31  1  0
  7 32  1  0
  9 33  1  0
 10 34  1  0
 11 35  1  0
 12 36  1  0
 16 37  1  0
 17 38  1  0
 17 39  1  0
 17 40  1  0
 18 41  1  0
 18 42  1  0
 20 43  1  0
 22 44  1  0
 23 45  1  0
M  END
>  <Energy>  (778) 
1044.9249788067393

>  <compound_id>  (778) 
25238

>  <target_id>  (778) 
1

>  <reference_id>  (778) 
93

>  <inspiration_ids>  (778) 
[93, 116]

>  <energy_score>  (778) 
1007.6583236045843

>  <distance_score>  (778) 
7.818938737170698

>  <path>  (778) 
/opt/xchem-fragalysis-2/maxwin/BulkDock/SCRATCH/511015/C25238-P93/C25238-P93.minimised.mol

>  <scratch_subdir>  (778) 
/opt/xchem-fragalysis-2/maxwin/BulkDock/SCRATCH/511015/C25238-P93

>  <fragmenstein_runtime>  (778) 
17.730862855911255

>  <fragmenstein_outcome>  (778) 
too moved

>  <fragmenstein_mode>  (778) 
expansion

>  <fragmenstein_error>  (778) 


$$$$
C25238-P116
     RDKit          3D

 45 47  0  0  0  0  0  0  0  0999 V2000
   11.6240   -6.9156   22.5587 C   0  0  0  0  0  0  0  0  0  0  0  0
   10.8546   -6.4341   21.2828 C   0  0  0  0  0  0  0  0  0  0  0  0
   10.1639   -4.9339   21.4616 N   0  0  0  0  0  0  0  0  0  0  0  0
   11.6944   -4.6115   20.6477 C   0  0  0  0  0  0  0  0  0  0  0  0
   13.0998   -4.5547   21.2323 C   0  0  0  0  0  0  0  0  0  0  0  0
   13.5511   -4.2882   22.5049 C   0  0  0  0  0  0  0  0  0  0  0  0
   14.9050   -4.0693   22.4453 N   0  0  0  0  0  0  0  0  0  0  0  0
   15.3369   -4.0550   21.1398 C   0  0  0  0  0  0  0  0  0  0  0  0
   16.5904   -3.7474   20.5973 C   0  0  0  0  0  0  0  0  0  0  0  0
   16.7250   -3.7574   19.2045 C   0  0  0  0  0  0  0  0  0  0  0  0
   15.6499   -4.0718   18.3857 C   0  0  0  0  0  0  0  0  0  0  0  0
   14.4081   -4.3828   18.9458 C   0  0  0  0  0  0  0  0  0  0  0  0
   14.2419   -4.3825   20.3512 C   0  0  0  0  0  0  0  0  0  0  0  0
    8.2601   -4.6611   20.8649 C   0  0  0  0  0  0  0  0  0  0  0  0
    7.9318   -4.3169   19.8076 O   0  0  0  0  0  0  0  0  0  0  0  0
    6.9467   -5.2649   22.4686 C   0  0  0  0  0  0  0  0  0  0  0  0
    6.1480   -4.5653   23.7891 C   0  0  0  0  0  0  0  0  0  0  0  0
    6.3922   -6.7021   23.6270 C   0  0  0  0  0  0  0  0  0  0  0  0
    6.4963   -7.0166   25.1733 C   0  0  0  0  0  0  0  0  0  0  0  0
    6.2233   -6.4035   26.3884 C   0  0  0  0  0  0  0  0  0  0  0  0
    6.2471   -7.2940   27.4454 N   0  0  0  0  0  0  0  0  0  0  0  0
    6.4818   -8.4588   26.8988 C   0  0  0  0  0  0  0  0  0  0  0  0
    6.6724   -8.3409   25.5559 N   0  0  0  0  0  0  0  0  0  0  0  0
   11.9113   -6.1156   23.2396 H   0  0  0  0  0  0  0  0  0  0  0  0
   11.0158   -7.6264   23.1302 H   0  0  0  0  0  0  0  0  0  0  0  0
   12.5266   -7.4715   22.2760 H   0  0  0  0  0  0  0  0  0  0  0  0
   11.7045   -6.5331   20.6221 H   0  0  0  0  0  0  0  0  0  0  0  0
   10.1913   -7.2485   21.0476 H   0  0  0  0  0  0  0  0  0  0  0  0
   11.6906   -3.5115   20.7819 H   0  0  0  0  0  0  0  0  0  0  0  0
   11.8203   -5.0485   19.6366 H   0  0  0  0  0  0  0  0  0  0  0  0
   13.0218   -4.1699   23.4414 H   0  0  0  0  0  0  0  0  0  0  0  0
   15.4830   -3.8280   23.2378 H   0  0  0  0  0  0  0  0  0  0  0  0
   17.4328   -3.4915   21.2317 H   0  0  0  0  0  0  0  0  0  0  0  0
   17.6878   -3.5181   18.7598 H   0  0  0  0  0  0  0  0  0  0  0  0
   15.7683   -4.0827   17.3060 H   0  0  0  0  0  0  0  0  0  0  0  0
   13.5793   -4.6276   18.2868 H   0  0  0  0  0  0  0  0  0  0  0  0
    6.5693   -6.0994   21.8559 H   0  0  0  0  0  0  0  0  0  0  0  0
    5.9318   -3.4929   23.6550 H   0  0  0  0  0  0  0  0  0  0  0  0
    6.6726   -4.7567   24.7337 H   0  0  0  0  0  0  0  0  0  0  0  0
    5.2417   -5.0147   24.2290 H   0  0  0  0  0  0  0  0  0  0  0  0
    6.9425   -7.5309   23.3547 H   0  0  0  0  0  0  0  0  0  0  0  0
    5.3476   -6.9267   23.3850 H   0  0  0  0  0  0  0  0  0  0  0  0
    5.9413   -5.3747   26.5723 H   0  0  0  0  0  0  0  0  0  0  0  0
    6.5232   -9.4090   27.4125 H   0  0  0  0  0  0  0  0  0  0  0  0
    6.7693   -9.1067   24.9019 H   0  0  0  0  0  0  0  0  0  0  0  0
  1  2  1  0
  2  3  1  0
  3  4  1  0
  4  5  1  0
  5  6  2  0
  6  7  1  0
  7  8  1  0
  8  9  2  0
  9 10  1  0
 10 11  2  0
 11 12  1  0
 12 13  2  0
  3 14  1  0
 14 15  2  0
 14 16  1  0
 16 17  1  0
 16 18  1  0
 18 19  1  0
 19 20  2  0
 20 21  1  0
 21 22  2  0
 22 23  1  0
 13  5  1  0
 23 19  1  0
 13  8  1  0
  1 24  1  0
  1 25  1  0
  1 26  1  0
  2 27  1  0
  2 28  1  0
  4 29  1  0
  4 30  1  0
  6 31  1  0
  7 32  1  0
  9 33  1  0
 10 34  1  0
 11 35  1  0
 12 36  1  0
 16 37  1  0
 17 38  1  0
 17 39  1  0
 17 40  1  0
 18 41  1  0
 18 42  1  0
 20 43  1  0
 22 44  1  0
 23 45  1  0
M  END
>  <Energy>  (779) 
573.10291232148143

>  <compound_id>  (779) 
25238

>  <target_id>  (779) 
1

>  <reference_id>  (779) 
116

>  <inspiration_ids>  (779) 
[93, 116]

>  <energy_score>  (779) 
535.8362571193351

>  <distance_score>  (779) 
8.177859278839959

>  <path>  (779) 
/opt/xchem-fragalysis-2/maxwin/BulkDock/SCRATCH/511015/C25238-P116/C25238-P116.minimised.mol

>  <scratch_subdir>  (779) 
/opt/xchem-fragalysis-2/maxwin/BulkDock/SCRATCH/511015/C25238-P116

>  <fragmenstein_runtime>  (779) 
13.216109275817871

>  <fragmenstein_outcome>  (779) 
too moved

>  <fragmenstein_mode>  (779) 
expansion

>  <fragmenstein_error>  (779) 


$$$$
C25239-P93
     RDKit          3D

 37 39  0  0  0  0  0  0  0  0999 V2000
   15.5160   -4.2330   21.0195 C   0  0  0  0  0  0  0  0  0  0  0  0
   14.3984   -4.3127   20.0206 C   0  0  0  0  0  0  0  0  0  0  0  0
   14.6028   -3.8239   18.7184 C   0  0  0  0  0  0  0  0  0  0  0  0
   13.6195   -3.9104   17.7510 C   0  0  0  0  0  0  0  0  0  0  0  0
   12.3845   -4.4631   18.0902 C   0  0  0  0  0  0  0  0  0  0  0  0
   12.0455   -4.9925   19.4517 C   0  0  0  0  0  0  0  0  0  0  0  0
   10.3972   -5.5063   20.2827 C   0  0  0  0  0  0  0  0  0  0  0  0
    8.3984   -4.8333   20.7217 C   0  0  0  0  0  0  0  0  0  0  0  0
    7.5400   -5.3957   22.5495 C   0  0  0  0  0  0  0  0  0  0  0  0
    6.7779   -6.7685   23.3087 N   0  0  0  0  0  0  0  0  0  0  0  0
    6.6664   -7.8394   24.5944 C   0  0  0  0  0  0  0  0  0  0  0  0
    7.5894   -8.9714   24.9940 C   0  0  0  0  0  0  0  0  0  0  0  0
    8.5520   -9.0521   25.9792 C   0  0  0  0  0  0  0  0  0  0  0  0
    8.7955  -10.3580   26.3236 N   0  0  0  0  0  0  0  0  0  0  0  0
    8.0253  -11.0827   25.5485 C   0  0  0  0  0  0  0  0  0  0  0  0
    7.3010  -10.2916   24.7158 N   0  0  0  0  0  0  0  0  0  0  0  0
   11.6482   -6.3650   20.8128 C   0  0  0  0  0  0  0  0  0  0  0  0
   12.6553   -5.5429   21.3600 N   0  0  0  0  0  0  0  0  0  0  0  0
   13.1436   -4.8898   20.2964 C   0  0  0  0  0  0  0  0  0  0  0  0
   16.3197   -4.9198   20.7361 H   0  0  0  0  0  0  0  0  0  0  0  0
   15.1773   -4.4970   22.0258 H   0  0  0  0  0  0  0  0  0  0  0  0
   15.9150   -3.2142   21.0612 H   0  0  0  0  0  0  0  0  0  0  0  0
   15.5618   -3.3799   18.4570 H   0  0  0  0  0  0  0  0  0  0  0  0
   13.7970   -3.5485   16.7431 H   0  0  0  0  0  0  0  0  0  0  0  0
   11.6299   -4.5216   17.3075 H   0  0  0  0  0  0  0  0  0  0  0  0
    8.2610   -3.7836   20.9269 H   0  0  0  0  0  0  0  0  0  0  0  0
    7.5581   -4.9834   20.0240 H   0  0  0  0  0  0  0  0  0  0  0  0
    7.0716   -4.4751   22.9425 H   0  0  0  0  0  0  0  0  0  0  0  0
    8.1670   -5.3641   23.3808 H   0  0  0  0  0  0  0  0  0  0  0  0
    5.9098   -6.9387   22.8070 H   0  0  0  0  0  0  0  0  0  0  0  0
    5.6215   -8.1864   24.5759 H   0  0  0  0  0  0  0  0  0  0  0  0
    6.4713   -7.5630   25.6213 H   0  0  0  0  0  0  0  0  0  0  0  0
    9.0178   -8.2415   26.5268 H   0  0  0  0  0  0  0  0  0  0  0  0
    7.9622  -12.1632   25.5388 H   0  0  0  0  0  0  0  0  0  0  0  0
    6.6266  -10.5962   24.0260 H   0  0  0  0  0  0  0  0  0  0  0  0
   11.6271   -7.3718   21.2573 H   0  0  0  0  0  0  0  0  0  0  0  0
   13.2261   -5.8085   22.1487 H   0  0  0  0  0  0  0  0  0  0  0  0
  1  2  1  0
  2  3  2  0
  3  4  1  0
  4  5  2  0
  5  6  1  0
  6  7  1  0
  7  8  1  0
  8  9  1  0
  9 10  1  0
 10 11  1  0
 11 12  1  0
 12 13  2  0
 13 14  1  0
 14 15  2  0
 15 16  1  0
  7 17  2  0
 17 18  1  0
 18 19  1  0
 19  2  1  0
 19  6  2  0
 16 12  1  0
  1 20  1  0
  1 21  1  0
  1 22  1  0
  3 23  1  0
  4 24  1  0
  5 25  1  0
  8 26  1  0
  8 27  1  0
  9 28  1  0
  9 29  1  0
 10 30  1  0
 11 31  1  0
 11 32  1  0
 13 33  1  0
 15 34  1  0
 16 35  1  0
 17 36  1  0
 18 37  1  0
M  END
>  <Energy>  (780) 
537.89314348002165

>  <compound_id>  (780) 
25239

>  <target_id>  (780) 
1

>  <reference_id>  (780) 
93

>  <inspiration_ids>  (780) 
[93, 116]

>  <energy_score>  (780) 
502.7940912761691

>  <distance_score>  (780) 
7.448768443965155

>  <path>  (780) 
/opt/xchem-fragalysis-2/maxwin/BulkDock/SCRATCH/511015/C25239-P93/C25239-P93.minimised.mol

>  <scratch_subdir>  (780) 
/opt/xchem-fragalysis-2/maxwin/BulkDock/SCRATCH/511015/C25239-P93

>  <fragmenstein_runtime>  (780) 
10.46973991394043

>  <fragmenstein_outcome>  (780) 
too moved

>  <fragmenstein_mode>  (780) 
expansion

>  <fragmenstein_error>  (780) 


$$$$
C25239-P116
     RDKit          3D

 37 39  0  0  0  0  0  0  0  0999 V2000
   15.3993   -5.3186   19.1499 C   0  0  0  0  0  0  0  0  0  0  0  0
   14.2850   -4.8951   20.0633 C   0  0  0  0  0  0  0  0  0  0  0  0
   13.9599   -3.5495   20.1057 C   0  0  0  0  0  0  0  0  0  0  0  0
   13.2059   -3.0965   21.1706 C   0  0  0  0  0  0  0  0  0  0  0  0
   12.5210   -3.9548   22.0597 C   0  0  0  0  0  0  0  0  0  0  0  0
   12.7691   -5.3403   22.0415 C   0  0  0  0  0  0  0  0  0  0  0  0
   12.4096   -6.5502   22.9136 C   0  0  0  0  0  0  0  0  0  0  0  0
   11.5104   -6.8075   24.3895 C   0  0  0  0  0  0  0  0  0  0  0  0
   10.4528   -8.1894   24.7528 C   0  0  0  0  0  0  0  0  0  0  0  0
    9.0679   -8.1599   25.6347 N   0  0  0  0  0  0  0  0  0  0  0  0
    8.1997   -9.5295   25.8451 C   0  0  0  0  0  0  0  0  0  0  0  0
    6.9736   -9.6674   26.7788 C   0  0  0  0  0  0  0  0  0  0  0  0
    6.5172  -10.7665   27.5180 C   0  0  0  0  0  0  0  0  0  0  0  0
    5.3586  -10.5052   28.2043 N   0  0  0  0  0  0  0  0  0  0  0  0
    5.0849   -9.2777   27.8635 C   0  0  0  0  0  0  0  0  0  0  0  0
    5.9594   -8.7593   26.9580 N   0  0  0  0  0  0  0  0  0  0  0  0
   13.2712   -7.5102   22.4039 C   0  0  0  0  0  0  0  0  0  0  0  0
   14.0774   -6.9955   21.4191 N   0  0  0  0  0  0  0  0  0  0  0  0
   13.7184   -5.7218   21.0720 C   0  0  0  0  0  0  0  0  0  0  0  0
   15.2023   -4.9842   18.1271 H   0  0  0  0  0  0  0  0  0  0  0  0
   15.5434   -6.4008   19.1562 H   0  0  0  0  0  0  0  0  0  0  0  0
   16.3392   -4.8657   19.4847 H   0  0  0  0  0  0  0  0  0  0  0  0
   14.4414   -2.8412   19.4385 H   0  0  0  0  0  0  0  0  0  0  0  0
   13.1998   -2.0340   21.3992 H   0  0  0  0  0  0  0  0  0  0  0  0
   11.9186   -3.5307   22.8582 H   0  0  0  0  0  0  0  0  0  0  0  0
   12.3230   -6.9114   25.1253 H   0  0  0  0  0  0  0  0  0  0  0  0
   11.0120   -5.8726   24.6630 H   0  0  0  0  0  0  0  0  0  0  0  0
   10.2725   -8.7005   23.8116 H   0  0  0  0  0  0  0  0  0  0  0  0
   11.0972   -8.8564   25.3396 H   0  0  0  0  0  0  0  0  0  0  0  0
    8.4311   -7.4777   25.2257 H   0  0  0  0  0  0  0  0  0  0  0  0
    8.9479  -10.2573   26.1807 H   0  0  0  0  0  0  0  0  0  0  0  0
    7.8855   -9.8139   24.8354 H   0  0  0  0  0  0  0  0  0  0  0  0
    6.9943  -11.7365   27.5913 H   0  0  0  0  0  0  0  0  0  0  0  0
    4.2469   -8.7234   28.1925 H   0  0  0  0  0  0  0  0  0  0  0  0
    5.8867   -7.8472   26.5236 H   0  0  0  0  0  0  0  0  0  0  0  0
   13.4402   -8.5263   22.7343 H   0  0  0  0  0  0  0  0  0  0  0  0
   14.8074   -7.5146   20.9520 H   0  0  0  0  0  0  0  0  0  0  0  0
  1  2  1  0
  2  3  2  0
  3  4  1  0
  4  5  2  0
  5  6  1  0
  6  7  1  0
  7  8  1  0
  8  9  1  0
  9 10  1  0
 10 11  1  0
 11 12  1  0
 12 13  2  0
 13 14  1  0
 14 15  2  0
 15 16  1  0
  7 17  2  0
 17 18  1  0
 18 19  1  0
 19  2  1  0
 19  6  2  0
 16 12  1  0
  1 20  1  0
  1 21  1  0
  1 22  1  0
  3 23  1  0
  4 24  1  0
  5 25  1  0
  8 26  1  0
  8 27  1  0
  9 28  1  0
  9 29  1  0
 10 30  1  0
 11 31  1  0
 11 32  1  0
 13 33  1  0
 15 34  1  0
 16 35  1  0
 17 36  1  0
 18 37  1  0
M  END
>  <Energy>  (781) 
107.0037305331997

>  <compound_id>  (781) 
25239

>  <target_id>  (781) 
1

>  <reference_id>  (781) 
116

>  <inspiration_ids>  (781) 
[93, 116]

>  <energy_score>  (781) 
66.89555408459631

>  <distance_score>  (781) 
7.41931682449119

>  <path>  (781) 
/opt/xchem-fragalysis-2/maxwin/BulkDock/SCRATCH/511015/C25239-P116/C25239-P116.minimised.mol

>  <scratch_subdir>  (781) 
/opt/xchem-fragalysis-2/maxwin/BulkDock/SCRATCH/511015/C25239-P116

>  <fragmenstein_runtime>  (781) 
6.843966484069824

>  <fragmenstein_outcome>  (781) 
too moved

>  <fragmenstein_mode>  (781) 
expansion

>  <fragmenstein_error>  (781) 


$$$$
C25240-P93
     RDKit          3D

 46 48  0  0  0  0  0  0  0  0999 V2000
    7.7191    1.5627   18.8047 C   0  0  0  0  0  0  0  0  0  0  0  0
    7.6855   -0.2689   18.6559 C   0  0  0  0  0  0  0  0  0  0  0  0
    7.4409   -1.3633   20.4406 C   0  0  0  0  0  0  0  0  0  0  0  0
    7.6889   -3.3514   21.1012 N   0  0  0  0  0  0  0  0  0  0  0  0
    7.2414   -4.1777   22.7291 C   0  0  0  0  0  0  0  0  0  0  0  0
    6.8058   -3.6303   23.7160 O   0  0  0  0  0  0  0  0  0  0  0  0
    7.2505   -6.1077   23.0023 C   0  0  0  0  0  0  0  0  0  0  0  0
    7.5992   -7.5616   24.2454 C   0  0  0  0  0  0  0  0  0  0  0  0
    8.7739   -7.8753   25.0742 C   0  0  0  0  0  0  0  0  0  0  0  0
    8.5620   -8.8902   25.9545 N   0  0  0  0  0  0  0  0  0  0  0  0
    7.3156   -9.2261   25.7967 C   0  0  0  0  0  0  0  0  0  0  0  0
    6.6937   -8.4239   24.8923 N   0  0  0  0  0  0  0  0  0  0  0  0
    8.1222    0.0440   16.7457 N   0  0  0  0  0  0  0  0  0  0  0  0
    7.0063   -0.7373   16.5857 C   0  0  0  0  0  0  0  0  0  0  0  0
    9.4906   -0.2308   16.4625 C   0  0  0  0  0  0  0  0  0  0  0  0
   10.0216   -1.2499   16.1043 O   0  0  0  0  0  0  0  0  0  0  0  0
   10.4866    0.8864   16.4673 C   0  0  0  0  0  0  0  0  0  0  0  0
   10.1584    2.2393   16.3820 C   0  0  0  0  0  0  0  0  0  0  0  0
   11.1558    3.2137   16.3097 C   0  0  0  0  0  0  0  0  0  0  0  0
   12.5159    2.8730   16.2496 C   0  0  0  0  0  0  0  0  0  0  0  0
   12.8863    1.5223   16.1785 C   0  0  0  0  0  0  0  0  0  0  0  0
   14.1275    0.8306   16.0722 C   0  0  0  0  0  0  0  0  0  0  0  0
   13.8538   -0.5155   16.0027 C   0  0  0  0  0  0  0  0  0  0  0  0
   12.4960   -0.6569   16.0480 N   0  0  0  0  0  0  0  0  0  0  0  0
   11.8735    0.5694   16.2295 C   0  0  0  0  0  0  0  0  0  0  0  0
    8.5880    1.9467   18.2636 H   0  0  0  0  0  0  0  0  0  0  0  0
    7.0650    2.3278   18.3693 H   0  0  0  0  0  0  0  0  0  0  0  0
    7.7149    1.6895   19.8881 H   0  0  0  0  0  0  0  0  0  0  0  0
    6.6281   -0.3119   18.6462 H   0  0  0  0  0  0  0  0  0  0  0  0
    6.7389   -0.6561   20.8203 H   0  0  0  0  0  0  0  0  0  0  0  0
    6.4526   -1.8121   20.5319 H   0  0  0  0  0  0  0  0  0  0  0  0
    7.9549   -4.0728   20.4052 H   0  0  0  0  0  0  0  0  0  0  0  0
    8.0408   -5.7565   23.5955 H   0  0  0  0  0  0  0  0  0  0  0  0
    6.2369   -6.1871   23.4039 H   0  0  0  0  0  0  0  0  0  0  0  0
    9.7328   -7.3664   25.0707 H   0  0  0  0  0  0  0  0  0  0  0  0
    6.8340  -10.0333   26.3276 H   0  0  0  0  0  0  0  0  0  0  0  0
    5.7712   -8.5589   24.5069 H   0  0  0  0  0  0  0  0  0  0  0  0
    6.1120   -0.8914   17.1683 H   0  0  0  0  0  0  0  0  0  0  0  0
    6.8195   -0.4358   15.5923 H   0  0  0  0  0  0  0  0  0  0  0  0
    7.3527   -1.6570   16.0570 H   0  0  0  0  0  0  0  0  0  0  0  0
    9.1174    2.5492   16.3453 H   0  0  0  0  0  0  0  0  0  0  0  0
   10.8752    4.2649   16.2914 H   0  0  0  0  0  0  0  0  0  0  0  0
   13.2706    3.6535   16.2127 H   0  0  0  0  0  0  0  0  0  0  0  0
   15.1121    1.2771   16.0302 H   0  0  0  0  0  0  0  0  0  0  0  0
   14.5002   -1.3756   15.8937 H   0  0  0  0  0  0  0  0  0  0  0  0
   11.9718   -1.5214   15.9625 H   0  0  0  0  0  0  0  0  0  0  0  0
  1  2  1  0
  2  3  1  0
  3  4  1  0
  4  5  1  0
  5  6  2  0
  5  7  1  0
  7  8  1  0
  8  9  2  0
  9 10  1  0
 10 11  2  0
 11 12  1  0
  2 13  1  0
 13 14  1  0
 13 15  1  0
 15 16  2  0
 15 17  1  0
 17 18  2  0
 18 19  1  0
 19 20  2  0
 20 21  1  0
 21 22  1  0
 22 23  2  0
 23 24  1  0
 24 25  1  0
 12  8  1  0
 25 17  1  0
 25 21  2  0
  1 26  1  0
  1 27  1  0
  1 28  1  0
  2 29  1  0
  3 30  1  0
  3 31  1  0
  4 32  1  0
  7 33  1  0
  7 34  1  0
  9 35  1  0
 11 36  1  0
 12 37  1  0
 14 38  1  0
 14 39  1  0
 14 40  1  0
 18 41  1  0
 19 42  1  0
 20 43  1  0
 22 44  1  0
 23 45  1  0
 24 46  1  0
M  END
>  <Energy>  (782) 
810.94491245959568

>  <compound_id>  (782) 
25240

>  <target_id>  (782) 
1

>  <reference_id>  (782) 
93

>  <inspiration_ids>  (782) 
[93, 116]

>  <energy_score>  (782) 
741.022336454597

>  <distance_score>  (782) 
7.516973097474222

>  <path>  (782) 
/opt/xchem-fragalysis-2/maxwin/BulkDock/SCRATCH/511015/C25240-P93/C25240-P93.minimised.mol

>  <scratch_subdir>  (782) 
/opt/xchem-fragalysis-2/maxwin/BulkDock/SCRATCH/511015/C25240-P93

>  <fragmenstein_runtime>  (782) 
23.367417097091675

>  <fragmenstein_outcome>  (782) 
too moved

>  <fragmenstein_mode>  (782) 
expansion

>  <fragmenstein_error>  (782) 


$$$$
C25240-P116
     RDKit          3D

 46 48  0  0  0  0  0  0  0  0999 V2000
   11.3179   -2.8919   16.2239 C   0  0  0  0  0  0  0  0  0  0  0  0
   11.7690   -3.8723   17.3799 C   0  0  0  0  0  0  0  0  0  0  0  0
   10.7051   -5.2194   18.1576 C   0  0  0  0  0  0  0  0  0  0  0  0
    9.3543   -5.9760   19.4047 N   0  0  0  0  0  0  0  0  0  0  0  0
    7.3974   -6.3744   19.1830 C   0  0  0  0  0  0  0  0  0  0  0  0
    6.6726   -6.2002   18.2025 O   0  0  0  0  0  0  0  0  0  0  0  0
    6.6360   -7.0276   20.9524 C   0  0  0  0  0  0  0  0  0  0  0  0
    6.4562   -6.7974   22.8934 C   0  0  0  0  0  0  0  0  0  0  0  0
    6.9675   -7.4034   24.1922 C   0  0  0  0  0  0  0  0  0  0  0  0
    6.6134   -6.7373   25.3266 N   0  0  0  0  0  0  0  0  0  0  0  0
    5.5749   -6.1152   24.8739 C   0  0  0  0  0  0  0  0  0  0  0  0
    5.3003   -6.6741   23.6654 N   0  0  0  0  0  0  0  0  0  0  0  0
   13.3251   -4.1301   17.1823 N   0  0  0  0  0  0  0  0  0  0  0  0
   12.8239   -5.0818   16.1592 C   0  0  0  0  0  0  0  0  0  0  0  0
   13.9463   -4.3611   18.4486 C   0  0  0  0  0  0  0  0  0  0  0  0
   14.1401   -5.3804   19.0499 O   0  0  0  0  0  0  0  0  0  0  0  0
   14.4974   -3.1028   18.9994 C   0  0  0  0  0  0  0  0  0  0  0  0
   14.4324   -2.8358   20.3660 C   0  0  0  0  0  0  0  0  0  0  0  0
   14.9700   -1.6580   20.8751 C   0  0  0  0  0  0  0  0  0  0  0  0
   15.6223   -0.7423   20.0373 C   0  0  0  0  0  0  0  0  0  0  0  0
   15.7261   -1.0090   18.6594 C   0  0  0  0  0  0  0  0  0  0  0  0
   16.3063   -0.3316   17.5531 C   0  0  0  0  0  0  0  0  0  0  0  0
   16.0703   -1.0859   16.4260 C   0  0  0  0  0  0  0  0  0  0  0  0
   15.3745   -2.1977   16.8088 N   0  0  0  0  0  0  0  0  0  0  0  0
   15.1482   -2.1754   18.1670 C   0  0  0  0  0  0  0  0  0  0  0  0
   12.1936   -2.4709   15.7117 H   0  0  0  0  0  0  0  0  0  0  0  0
   10.7771   -2.0145   16.5762 H   0  0  0  0  0  0  0  0  0  0  0  0
   10.7112   -3.3920   15.4628 H   0  0  0  0  0  0  0  0  0  0  0  0
   11.9310   -3.1717   18.1967 H   0  0  0  0  0  0  0  0  0  0  0  0
   11.4812   -5.2839   18.9730 H   0  0  0  0  0  0  0  0  0  0  0  0
   10.8421   -5.7936   17.2505 H   0  0  0  0  0  0  0  0  0  0  0  0
    9.6573   -6.1471   20.3402 H   0  0  0  0  0  0  0  0  0  0  0  0
    5.7616   -7.5614   21.1285 H   0  0  0  0  0  0  0  0  0  0  0  0
    6.7507   -7.8474   20.2859 H   0  0  0  0  0  0  0  0  0  0  0  0
    7.5842   -8.2749   24.3734 H   0  0  0  0  0  0  0  0  0  0  0  0
    4.9383   -5.4204   25.3996 H   0  0  0  0  0  0  0  0  0  0  0  0
    4.4077   -6.9885   23.3759 H   0  0  0  0  0  0  0  0  0  0  0  0
   13.7598   -5.3200   15.6315 H   0  0  0  0  0  0  0  0  0  0  0  0
   12.2477   -4.7074   15.3093 H   0  0  0  0  0  0  0  0  0  0  0  0
   12.4908   -6.0531   16.4783 H   0  0  0  0  0  0  0  0  0  0  0  0
   13.9518   -3.5479   21.0336 H   0  0  0  0  0  0  0  0  0  0  0  0
   14.8967   -1.4525   21.9413 H   0  0  0  0  0  0  0  0  0  0  0  0
   16.0512    0.1642   20.4553 H   0  0  0  0  0  0  0  0  0  0  0  0
   16.8342    0.6122   17.5801 H   0  0  0  0  0  0  0  0  0  0  0  0
   16.3357   -0.9258   15.3901 H   0  0  0  0  0  0  0  0  0  0  0  0
   15.0405   -2.9386   16.2045 H   0  0  0  0  0  0  0  0  0  0  0  0
  1  2  1  0
  2  3  1  0
  3  4  1  0
  4  5  1  0
  5  6  2  0
  5  7  1  0
  7  8  1  0
  8  9  2  0
  9 10  1  0
 10 11  2  0
 11 12  1  0
  2 13  1  0
 13 14  1  0
 13 15  1  0
 15 16  2  0
 15 17  1  0
 17 18  2  0
 18 19  1  0
 19 20  2  0
 20 21  1  0
 21 22  1  0
 22 23  2  0
 23 24  1  0
 24 25  1  0
 12  8  1  0
 25 17  1  0
 25 21  2  0
  1 26  1  0
  1 27  1  0
  1 28  1  0
  2 29  1  0
  3 30  1  0
  3 31  1  0
  4 32  1  0
  7 33  1  0
  7 34  1  0
  9 35  1  0
 11 36  1  0
 12 37  1  0
 14 38  1  0
 14 39  1  0
 14 40  1  0
 18 41  1  0
 19 42  1  0
 20 43  1  0
 22 44  1  0
 23 45  1  0
 24 46  1  0
M  END
>  <Energy>  (783) 
683.13806917111003

>  <compound_id>  (783) 
25240

>  <target_id>  (783) 
1

>  <reference_id>  (783) 
116

>  <inspiration_ids>  (783) 
[93, 116]

>  <energy_score>  (783) 
613.2154931661113

>  <distance_score>  (783) 
7.35911191666037

>  <path>  (783) 
/opt/xchem-fragalysis-2/maxwin/BulkDock/SCRATCH/511015/C25240-P116/C25240-P116.minimised.mol

>  <scratch_subdir>  (783) 
/opt/xchem-fragalysis-2/maxwin/BulkDock/SCRATCH/511015/C25240-P116

>  <fragmenstein_runtime>  (783) 
13.978434562683105

>  <fragmenstein_outcome>  (783) 
too moved

>  <fragmenstein_mode>  (783) 
expansion

>  <fragmenstein_error>  (783) 


$$$$
C25242-P93
     RDKit          3D

 33 35  0  0  0  0  0  0  0  0999 V2000
    8.7634  -13.2799   18.3578 O   0  0  0  0  0  0  0  0  0  0  0  0
    7.8841  -12.5564   18.7207 C   0  0  0  0  0  0  0  0  0  0  0  0
    7.8468  -11.1187   18.8637 N   0  0  0  0  0  0  0  0  0  0  0  0
    8.8654  -10.0627   18.5095 C   0  0  0  0  0  0  0  0  0  0  0  0
    9.8129   -8.7962   19.8423 C   0  0  0  0  0  0  0  0  0  0  0  0
   11.1255   -8.3153   21.2185 C   0  0  0  0  0  0  0  0  0  0  0  0
   11.3739   -8.8359   22.5202 C   0  0  0  0  0  0  0  0  0  0  0  0
   12.6324   -8.5252   22.9839 N   0  0  0  0  0  0  0  0  0  0  0  0
   13.1680   -7.4721   22.3106 C   0  0  0  0  0  0  0  0  0  0  0  0
   14.3449   -6.7453   22.5674 C   0  0  0  0  0  0  0  0  0  0  0  0
   14.5917   -5.5795   21.8375 C   0  0  0  0  0  0  0  0  0  0  0  0
   16.0201   -4.6722   22.1520 Cl  0  0  0  0  0  0  0  0  0  0  0  0
   13.6813   -5.1234   20.9101 C   0  0  0  0  0  0  0  0  0  0  0  0
   12.5388   -5.8877   20.6634 C   0  0  0  0  0  0  0  0  0  0  0  0
   12.2665   -7.1619   21.2984 C   0  0  0  0  0  0  0  0  0  0  0  0
    6.6620  -13.2102   19.1962 C   0  0  0  0  0  0  0  0  0  0  0  0
    6.5541  -14.4178   19.8732 C   0  0  0  0  0  0  0  0  0  0  0  0
    5.2480  -14.7568   20.1380 N   0  0  0  0  0  0  0  0  0  0  0  0
    4.5426  -13.7919   19.6066 C   0  0  0  0  0  0  0  0  0  0  0  0
    5.3491  -12.8491   19.0281 N   0  0  0  0  0  0  0  0  0  0  0  0
    6.9142  -10.8381   19.1149 H   0  0  0  0  0  0  0  0  0  0  0  0
    8.7417   -9.8543   17.4610 H   0  0  0  0  0  0  0  0  0  0  0  0
    9.7103  -10.7740   18.2309 H   0  0  0  0  0  0  0  0  0  0  0  0
   10.6725   -9.2426   19.4164 H   0  0  0  0  0  0  0  0  0  0  0  0
    9.3404   -7.8969   19.7692 H   0  0  0  0  0  0  0  0  0  0  0  0
   10.8300   -9.5526   23.1255 H   0  0  0  0  0  0  0  0  0  0  0  0
   13.0410   -8.9237   23.8187 H   0  0  0  0  0  0  0  0  0  0  0  0
   15.0293   -7.0565   23.3516 H   0  0  0  0  0  0  0  0  0  0  0  0
   13.8253   -4.1786   20.3947 H   0  0  0  0  0  0  0  0  0  0  0  0
   11.8235   -5.4727   19.9771 H   0  0  0  0  0  0  0  0  0  0  0  0
    7.3712  -15.0569   20.1865 H   0  0  0  0  0  0  0  0  0  0  0  0
    3.4635  -13.7169   19.5979 H   0  0  0  0  0  0  0  0  0  0  0  0
    5.0031  -12.0243   18.5494 H   0  0  0  0  0  0  0  0  0  0  0  0
  1  2  2  0
  2  3  1  0
  3  4  1  0
  4  5  1  0
  5  6  1  0
  6  7  2  0
  7  8  1  0
  8  9  1  0
  9 10  2  0
 10 11  1  0
 11 12  1  0
 11 13  2  0
 13 14  1  0
 14 15  2  0
  2 16  1  0
 16 17  2  0
 17 18  1  0
 18 19  2  0
 19 20  1  0
 15  6  1  0
 20 16  1  0
 15  9  1  0
  3 21  1  0
  4 22  1  0
  4 23  1  0
  5 24  1  0
  5 25  1  0
  7 26  1  0
  8 27  1  0
 10 28  1  0
 13 29  1  0
 14 30  1  0
 17 31  1  0
 19 32  1  0
 20 33  1  0
M  END
>  <Energy>  (784) 
228.95563312345669

>  <compound_id>  (784) 
25242

>  <target_id>  (784) 
1

>  <reference_id>  (784) 
93

>  <inspiration_ids>  (784) 
[93, 116]

>  <energy_score>  (784) 
227.4129492034633

>  <distance_score>  (784) 
9.409642917578289

>  <path>  (784) 
/opt/xchem-fragalysis-2/maxwin/BulkDock/SCRATCH/511015/C25242-P93/C25242-P93.minimised.mol

>  <scratch_subdir>  (784) 
/opt/xchem-fragalysis-2/maxwin/BulkDock/SCRATCH/511015/C25242-P93

>  <fragmenstein_runtime>  (784) 
15.674452066421509

>  <fragmenstein_outcome>  (784) 
too moved

>  <fragmenstein_mode>  (784) 
expansion

>  <fragmenstein_error>  (784) 


$$$$
C25242-P116
     RDKit          3D

 33 35  0  0  0  0  0  0  0  0999 V2000
    9.3674   -7.7356   25.0144 O   0  0  0  0  0  0  0  0  0  0  0  0
    9.6622   -8.8844   25.1412 C   0  0  0  0  0  0  0  0  0  0  0  0
   10.8388   -9.5944   24.7410 N   0  0  0  0  0  0  0  0  0  0  0  0
   12.0959   -9.1199   24.1359 C   0  0  0  0  0  0  0  0  0  0  0  0
   12.0220   -7.7837   23.3599 C   0  0  0  0  0  0  0  0  0  0  0  0
   13.2254   -7.3910   22.5122 C   0  0  0  0  0  0  0  0  0  0  0  0
   14.2643   -8.1967   22.0808 C   0  0  0  0  0  0  0  0  0  0  0  0
   15.0717   -7.4741   21.2375 N   0  0  0  0  0  0  0  0  0  0  0  0
   14.5947   -6.1945   21.0995 C   0  0  0  0  0  0  0  0  0  0  0  0
   15.0617   -5.1471   20.2918 C   0  0  0  0  0  0  0  0  0  0  0  0
   14.4152   -3.9192   20.4015 C   0  0  0  0  0  0  0  0  0  0  0  0
   14.9826   -2.5765   19.4840 Cl  0  0  0  0  0  0  0  0  0  0  0  0
   13.3501   -3.7555   21.2768 C   0  0  0  0  0  0  0  0  0  0  0  0
   12.8415   -4.8350   22.0097 C   0  0  0  0  0  0  0  0  0  0  0  0
   13.4750   -6.0894   21.9279 C   0  0  0  0  0  0  0  0  0  0  0  0
    8.6305   -9.7585   25.7245 C   0  0  0  0  0  0  0  0  0  0  0  0
    7.6086   -9.3929   26.5960 C   0  0  0  0  0  0  0  0  0  0  0  0
    6.7860  -10.4464   26.9074 N   0  0  0  0  0  0  0  0  0  0  0  0
    7.2273  -11.4414   26.1783 C   0  0  0  0  0  0  0  0  0  0  0  0
    8.3283  -11.0793   25.4478 N   0  0  0  0  0  0  0  0  0  0  0  0
   10.7836  -10.5436   25.0858 H   0  0  0  0  0  0  0  0  0  0  0  0
   12.4234   -9.9289   23.4743 H   0  0  0  0  0  0  0  0  0  0  0  0
   12.8281   -9.0412   24.9468 H   0  0  0  0  0  0  0  0  0  0  0  0
   11.1650   -7.8306   22.6783 H   0  0  0  0  0  0  0  0  0  0  0  0
   11.8237   -6.9760   24.0746 H   0  0  0  0  0  0  0  0  0  0  0  0
   14.4849   -9.2394   22.2632 H   0  0  0  0  0  0  0  0  0  0  0  0
   15.8662   -7.8405   20.7312 H   0  0  0  0  0  0  0  0  0  0  0  0
   15.9053   -5.2842   19.6247 H   0  0  0  0  0  0  0  0  0  0  0  0
   12.9057   -2.7819   21.4298 H   0  0  0  0  0  0  0  0  0  0  0  0
   11.9895   -4.6823   22.6651 H   0  0  0  0  0  0  0  0  0  0  0  0
    7.4361   -8.4076   27.0136 H   0  0  0  0  0  0  0  0  0  0  0  0
    6.7948  -12.4324   26.1273 H   0  0  0  0  0  0  0  0  0  0  0  0
    8.7842  -11.6692   24.7661 H   0  0  0  0  0  0  0  0  0  0  0  0
  1  2  2  0
  2  3  1  0
  3  4  1  0
  4  5  1  0
  5  6  1  0
  6  7  2  0
  7  8  1  0
  8  9  1  0
  9 10  2  0
 10 11  1  0
 11 12  1  0
 11 13  2  0
 13 14  1  0
 14 15  2  0
  2 16  1  0
 16 17  2  0
 17 18  1  0
 18 19  2  0
 19 20  1  0
 15  6  1  0
 20 16  1  0
 15  9  1  0
  3 21  1  0
  4 22  1  0
  4 23  1  0
  5 24  1  0
  5 25  1  0
  7 26  1  0
  8 27  1  0
 10 28  1  0
 13 29  1  0
 14 30  1  0
 17 31  1  0
 19 32  1  0
 20 33  1  0
M  END
>  <Energy>  (785) 
-2.0290587570142997

>  <compound_id>  (785) 
25242

>  <target_id>  (785) 
1

>  <reference_id>  (785) 
116

>  <inspiration_ids>  (785) 
[93, 116]

>  <energy_score>  (785) 
-3.5717426770091834

>  <distance_score>  (785) 
8.217245780310169

>  <path>  (785) 
/opt/xchem-fragalysis-2/maxwin/BulkDock/SCRATCH/511015/C25242-P116/C25242-P116.minimised.mol

>  <scratch_subdir>  (785) 
/opt/xchem-fragalysis-2/maxwin/BulkDock/SCRATCH/511015/C25242-P116

>  <fragmenstein_runtime>  (785) 
12.07516098022461

>  <fragmenstein_outcome>  (785) 
too moved

>  <fragmenstein_mode>  (785) 
expansion

>  <fragmenstein_error>  (785) 


$$$$
C25243-P93
     RDKit          3D

 40 42  0  0  0  0  0  0  0  0999 V2000
   12.1834   -8.5290   26.1473 C   0  0  0  0  0  0  0  0  0  0  0  0
   11.2213   -8.5552   24.9597 C   0  0  0  0  0  0  0  0  0  0  0  0
   11.9493   -8.9747   23.6566 C   0  0  0  0  0  0  0  0  0  0  0  0
   12.8038   -7.9881   22.9947 N   0  0  0  0  0  0  0  0  0  0  0  0
   13.0367   -6.6021   23.2799 C   0  0  0  0  0  0  0  0  0  0  0  0
   12.6531   -5.9178   24.1792 O   0  0  0  0  0  0  0  0  0  0  0  0
   13.8009   -5.9431   22.2061 C   0  0  0  0  0  0  0  0  0  0  0  0
   14.7392   -6.3958   21.2877 C   0  0  0  0  0  0  0  0  0  0  0  0
   15.1227   -5.3153   20.4385 C   0  0  0  0  0  0  0  0  0  0  0  0
   16.0203   -5.1756   19.3583 C   0  0  0  0  0  0  0  0  0  0  0  0
   16.1402   -3.9381   18.7098 C   0  0  0  0  0  0  0  0  0  0  0  0
   15.4133   -2.8414   19.1584 C   0  0  0  0  0  0  0  0  0  0  0  0
   15.5842   -1.3233   18.3629 Cl  0  0  0  0  0  0  0  0  0  0  0  0
   14.5600   -2.9436   20.2594 C   0  0  0  0  0  0  0  0  0  0  0  0
   14.4174   -4.1983   20.8671 C   0  0  0  0  0  0  0  0  0  0  0  0
   13.6563   -4.5864   21.9489 N   0  0  0  0  0  0  0  0  0  0  0  0
   10.0790   -9.4259   25.2991 N   0  0  0  0  0  0  0  0  0  0  0  0
    8.8231   -9.1280   25.9235 C   0  0  0  0  0  0  0  0  0  0  0  0
    8.3471   -8.0846   26.2570 O   0  0  0  0  0  0  0  0  0  0  0  0
    8.0571  -10.3232   26.2546 C   0  0  0  0  0  0  0  0  0  0  0  0
    7.8401  -11.5305   25.6199 C   0  0  0  0  0  0  0  0  0  0  0  0
    7.0101  -12.3455   26.3529 N   0  0  0  0  0  0  0  0  0  0  0  0
    6.7028  -11.6578   27.4264 C   0  0  0  0  0  0  0  0  0  0  0  0
    7.2616  -10.4153   27.3849 N   0  0  0  0  0  0  0  0  0  0  0  0
   13.0388   -7.8732   25.9634 H   0  0  0  0  0  0  0  0  0  0  0  0
   11.6744   -8.1726   27.0498 H   0  0  0  0  0  0  0  0  0  0  0  0
   12.5666   -9.5326   26.3636 H   0  0  0  0  0  0  0  0  0  0  0  0
   10.7965   -7.5542   24.8418 H   0  0  0  0  0  0  0  0  0  0  0  0
   11.2014   -9.2522   22.9048 H   0  0  0  0  0  0  0  0  0  0  0  0
   12.5622   -9.8673   23.8251 H   0  0  0  0  0  0  0  0  0  0  0  0
   13.2190   -8.2148   22.1006 H   0  0  0  0  0  0  0  0  0  0  0  0
   15.1317   -7.4029   21.2277 H   0  0  0  0  0  0  0  0  0  0  0  0
   16.6088   -6.0249   19.0210 H   0  0  0  0  0  0  0  0  0  0  0  0
   16.8174   -3.8396   17.8655 H   0  0  0  0  0  0  0  0  0  0  0  0
   14.0383   -2.0761   20.6458 H   0  0  0  0  0  0  0  0  0  0  0  0
   13.0412   -3.9700   22.4707 H   0  0  0  0  0  0  0  0  0  0  0  0
   10.1868  -10.4324   25.2379 H   0  0  0  0  0  0  0  0  0  0  0  0
    8.2299  -11.8618   24.6661 H   0  0  0  0  0  0  0  0  0  0  0  0
    6.0832  -11.9972   28.2470 H   0  0  0  0  0  0  0  0  0  0  0  0
    7.1745   -9.6917   28.0847 H   0  0  0  0  0  0  0  0  0  0  0  0
  1  2  1  0
  2  3  1  0
  3  4  1  0
  4  5  1  0
  5  6  2  0
  5  7  1  0
  7  8  2  0
  8  9  1  0
  9 10  2  0
 10 11  1  0
 11 12  2  0
 12 13  1  0
 12 14  1  0
 14 15  2  0
 15 16  1  0
  2 17  1  0
 17 18  1  0
 18 19  2  0
 18 20  1  0
 20 21  2  0
 21 22  1  0
 22 23  2  0
 23 24  1  0
 16  7  1  0
 24 20  1  0
 15  9  1  0
  1 25  1  0
  1 26  1  0
  1 27  1  0
  2 28  1  0
  3 29  1  0
  3 30  1  0
  4 31  1  0
  8 32  1  0
 10 33  1  0
 11 34  1  0
 14 35  1  0
 16 36  1  0
 17 37  1  0
 21 38  1  0
 23 39  1  0
 24 40  1  0
M  END
>  <Energy>  (786) 
-34.313099041408407

>  <compound_id>  (786) 
25243

>  <target_id>  (786) 
1

>  <reference_id>  (786) 
93

>  <inspiration_ids>  (786) 
[93, 116]

>  <energy_score>  (786) 
-8.200157949467041

>  <distance_score>  (786) 
8.729256397099842

>  <path>  (786) 
/opt/xchem-fragalysis-2/maxwin/BulkDock/SCRATCH/511015/C25243-P93/C25243-P93.minimised.mol

>  <scratch_subdir>  (786) 
/opt/xchem-fragalysis-2/maxwin/BulkDock/SCRATCH/511015/C25243-P93

>  <fragmenstein_runtime>  (786) 
18.317709922790527

>  <fragmenstein_outcome>  (786) 
too moved

>  <fragmenstein_mode>  (786) 
expansion

>  <fragmenstein_error>  (786) 


$$$$
C25243-P116
     RDKit          3D

 40 42  0  0  0  0  0  0  0  0999 V2000
   11.5572  -10.1184   24.6670 C   0  0  0  0  0  0  0  0  0  0  0  0
   10.5918   -9.0702   24.1078 C   0  0  0  0  0  0  0  0  0  0  0  0
   11.2994   -7.6371   24.1557 C   0  0  0  0  0  0  0  0  0  0  0  0
   11.9050   -6.9882   22.8949 N   0  0  0  0  0  0  0  0  0  0  0  0
   13.0897   -5.9565   22.7438 C   0  0  0  0  0  0  0  0  0  0  0  0
   13.8200   -5.5165   23.5503 O   0  0  0  0  0  0  0  0  0  0  0  0
   13.3432   -5.3592   21.3434 C   0  0  0  0  0  0  0  0  0  0  0  0
   14.5191   -4.6690   20.9776 C   0  0  0  0  0  0  0  0  0  0  0  0
   14.4591   -4.1046   19.6758 C   0  0  0  0  0  0  0  0  0  0  0  0
   15.3406   -3.3179   18.8944 C   0  0  0  0  0  0  0  0  0  0  0  0
   14.9546   -2.8965   17.6168 C   0  0  0  0  0  0  0  0  0  0  0  0
   13.7183   -3.2830   17.1177 C   0  0  0  0  0  0  0  0  0  0  0  0
   13.2324   -2.7674   15.5469 Cl  0  0  0  0  0  0  0  0  0  0  0  0
   12.8445   -4.0783   17.8756 C   0  0  0  0  0  0  0  0  0  0  0  0
   13.2251   -4.4653   19.1814 C   0  0  0  0  0  0  0  0  0  0  0  0
   12.5549   -5.1567   20.2183 N   0  0  0  0  0  0  0  0  0  0  0  0
    9.2195   -9.3082   24.7852 N   0  0  0  0  0  0  0  0  0  0  0  0
    8.6671   -8.8128   26.1665 C   0  0  0  0  0  0  0  0  0  0  0  0
    9.1406   -8.0898   26.9561 O   0  0  0  0  0  0  0  0  0  0  0  0
    7.3486   -9.4655   26.5721 C   0  0  0  0  0  0  0  0  0  0  0  0
    6.1722   -8.8827   27.0833 C   0  0  0  0  0  0  0  0  0  0  0  0
    5.3397   -9.7867   27.7235 N   0  0  0  0  0  0  0  0  0  0  0  0
    5.9873  -10.9249   27.6455 C   0  0  0  0  0  0  0  0  0  0  0  0
    7.0900  -10.8169   26.8344 N   0  0  0  0  0  0  0  0  0  0  0  0
   11.1497  -11.1276   24.5420 H   0  0  0  0  0  0  0  0  0  0  0  0
   11.7293   -9.9625   25.7376 H   0  0  0  0  0  0  0  0  0  0  0  0
   12.5223  -10.0781   24.1514 H   0  0  0  0  0  0  0  0  0  0  0  0
   10.4243   -9.3199   23.0547 H   0  0  0  0  0  0  0  0  0  0  0  0
   12.1359   -7.6697   24.8650 H   0  0  0  0  0  0  0  0  0  0  0  0
   10.6066   -6.9155   24.5926 H   0  0  0  0  0  0  0  0  0  0  0  0
   11.4279   -7.0874   22.0105 H   0  0  0  0  0  0  0  0  0  0  0  0
   15.3606   -4.5663   21.6542 H   0  0  0  0  0  0  0  0  0  0  0  0
   16.3106   -3.0351   19.2935 H   0  0  0  0  0  0  0  0  0  0  0  0
   15.6279   -2.2855   17.0237 H   0  0  0  0  0  0  0  0  0  0  0  0
   11.8940   -4.3896   17.4580 H   0  0  0  0  0  0  0  0  0  0  0  0
   11.5580   -5.3072   20.1678 H   0  0  0  0  0  0  0  0  0  0  0  0
    8.5849   -9.9975   24.3928 H   0  0  0  0  0  0  0  0  0  0  0  0
    5.9359   -7.8242   27.0839 H   0  0  0  0  0  0  0  0  0  0  0  0
    5.7094  -11.8606   28.1146 H   0  0  0  0  0  0  0  0  0  0  0  0
    7.7531  -11.5617   26.6846 H   0  0  0  0  0  0  0  0  0  0  0  0
  1  2  1  0
  2  3  1  0
  3  4  1  0
  4  5  1  0
  5  6  2  0
  5  7  1  0
  7  8  2  0
  8  9  1  0
  9 10  2  0
 10 11  1  0
 11 12  2  0
 12 13  1  0
 12 14  1  0
 14 15  2  0
 15 16  1  0
  2 17  1  0
 17 18  1  0
 18 19  2  0
 18 20  1  0
 20 21  2  0
 21 22  1  0
 22 23  2  0
 23 24  1  0
 16  7  1  0
 24 20  1  0
 15  9  1  0
  1 25  1  0
  1 26  1  0
  1 27  1  0
  2 28  1  0
  3 29  1  0
  3 30  1  0
  4 31  1  0
  8 32  1  0
 10 33  1  0
 11 34  1  0
 14 35  1  0
 16 36  1  0
 17 37  1  0
 21 38  1  0
 23 39  1  0
 24 40  1  0
M  END
>  <Energy>  (787) 
36.788710623235865

>  <compound_id>  (787) 
25243

>  <target_id>  (787) 
1

>  <reference_id>  (787) 
116

>  <inspiration_ids>  (787) 
[93, 116]

>  <energy_score>  (787) 
53.860855524772006

>  <distance_score>  (787) 
8.059904997863754

>  <path>  (787) 
/opt/xchem-fragalysis-2/maxwin/BulkDock/SCRATCH/511015/C25243-P116/C25243-P116.minimised.mol

>  <scratch_subdir>  (787) 
/opt/xchem-fragalysis-2/maxwin/BulkDock/SCRATCH/511015/C25243-P116

>  <fragmenstein_runtime>  (787) 
6.791427373886108

>  <fragmenstein_outcome>  (787) 
too moved

>  <fragmenstein_mode>  (787) 
expansion

>  <fragmenstein_error>  (787) 


$$$$
C25235-P93
     RDKit          3D

 42 44  0  0  0  0  0  0  0  0999 V2000
    6.1034  -11.9096   27.2561 C   0  0  0  0  0  0  0  0  0  0  0  0
    6.2152  -12.8317   25.9948 C   0  0  0  0  0  0  0  0  0  0  0  0
    4.7613  -14.0506   25.5047 C   0  0  0  0  0  0  0  0  0  0  0  0
    4.9219  -15.5395   24.6576 C   0  0  0  0  0  0  0  0  0  0  0  0
    5.7158  -16.6895   24.6735 C   0  0  0  0  0  0  0  0  0  0  0  0
    5.2346  -17.7022   23.8806 N   0  0  0  0  0  0  0  0  0  0  0  0
    4.3233  -17.1358   23.1431 C   0  0  0  0  0  0  0  0  0  0  0  0
    4.2348  -15.8048   23.4403 N   0  0  0  0  0  0  0  0  0  0  0  0
    7.2450  -11.9250   25.0258 C   0  0  0  0  0  0  0  0  0  0  0  0
    6.8002  -11.3631   24.0715 O   0  0  0  0  0  0  0  0  0  0  0  0
    8.6332  -12.0528   25.5007 N   0  0  0  0  0  0  0  0  0  0  0  0
    9.9191  -11.6102   24.8904 C   0  0  0  0  0  0  0  0  0  0  0  0
   10.3912  -10.1266   24.9261 C   0  0  0  0  0  0  0  0  0  0  0  0
   11.8920   -9.8823   24.5955 C   0  0  0  0  0  0  0  0  0  0  0  0
   12.9262  -10.4334   25.3334 C   0  0  0  0  0  0  0  0  0  0  0  0
   14.1274   -9.9449   24.8980 N   0  0  0  0  0  0  0  0  0  0  0  0
   13.9371   -9.0243   23.9033 C   0  0  0  0  0  0  0  0  0  0  0  0
   14.8872   -8.2198   23.2468 C   0  0  0  0  0  0  0  0  0  0  0  0
   14.4344   -7.3136   22.2989 C   0  0  0  0  0  0  0  0  0  0  0  0
   13.0927   -7.2880   21.9916 C   0  0  0  0  0  0  0  0  0  0  0  0
   12.6684   -6.3908   21.0928 F   0  0  0  0  0  0  0  0  0  0  0  0
   12.1694   -8.1641   22.5893 C   0  0  0  0  0  0  0  0  0  0  0  0
   12.5635   -9.0076   23.6369 C   0  0  0  0  0  0  0  0  0  0  0  0
    5.9182  -10.8563   27.0556 H   0  0  0  0  0  0  0  0  0  0  0  0
    5.3758  -12.2573   27.9876 H   0  0  0  0  0  0  0  0  0  0  0  0
    7.0797  -11.8495   27.7567 H   0  0  0  0  0  0  0  0  0  0  0  0
    6.9976  -13.5228   26.3403 H   0  0  0  0  0  0  0  0  0  0  0  0
    4.2052  -14.3179   26.4229 H   0  0  0  0  0  0  0  0  0  0  0  0
    3.9538  -13.6388   24.8889 H   0  0  0  0  0  0  0  0  0  0  0  0
    6.6518  -16.8477   25.1967 H   0  0  0  0  0  0  0  0  0  0  0  0
    3.7266  -17.6081   22.3754 H   0  0  0  0  0  0  0  0  0  0  0  0
    3.5292  -15.2043   23.0403 H   0  0  0  0  0  0  0  0  0  0  0  0
    8.6367  -12.5309   26.3924 H   0  0  0  0  0  0  0  0  0  0  0  0
    9.9028  -11.9508   23.8595 H   0  0  0  0  0  0  0  0  0  0  0  0
   10.6763  -12.2195   25.3961 H   0  0  0  0  0  0  0  0  0  0  0  0
    9.7785   -9.5227   24.2621 H   0  0  0  0  0  0  0  0  0  0  0  0
   10.2193   -9.7353   25.9374 H   0  0  0  0  0  0  0  0  0  0  0  0
   12.9035  -11.1261   26.1650 H   0  0  0  0  0  0  0  0  0  0  0  0
   15.0269  -10.1823   25.2941 H   0  0  0  0  0  0  0  0  0  0  0  0
   15.9413   -8.2716   23.5036 H   0  0  0  0  0  0  0  0  0  0  0  0
   15.1207   -6.6358   21.8025 H   0  0  0  0  0  0  0  0  0  0  0  0
   11.1449   -8.1828   22.2678 H   0  0  0  0  0  0  0  0  0  0  0  0
  1  2  1  0
  2  3  1  0
  3  4  1  0
  4  5  2  0
  5  6  1  0
  6  7  2  0
  7  8  1  0
  2  9  1  0
  9 10  2  0
  9 11  1  0
 11 12  1  0
 12 13  1  0
 13 14  1  0
 14 15  2  0
 15 16  1  0
 16 17  1  0
 17 18  2  0
 18 19  1  0
 19 20  2  0
 20 21  1  0
 20 22  1  0
 22 23  2  0
  8  4  1  0
 23 14  1  0
 23 17  1  0
  1 24  1  0
  1 25  1  0
  1 26  1  0
  2 27  1  0
  3 28  1  0
  3 29  1  0
  5 30  1  0
  7 31  1  0
  8 32  1  0
 11 33  1  0
 12 34  1  0
 12 35  1  0
 13 36  1  0
 13 37  1  0
 15 38  1  0
 16 39  1  0
 18 40  1  0
 19 41  1  0
 22 42  1  0
M  END
>  <Energy>  (788) 
124.72130229591997

>  <compound_id>  (788) 
25235

>  <target_id>  (788) 
1

>  <reference_id>  (788) 
93

>  <inspiration_ids>  (788) 
[93, 116]

>  <energy_score>  (788) 
95.23606086096868

>  <distance_score>  (788) 
9.403938489367091

>  <path>  (788) 
/opt/xchem-fragalysis-2/maxwin/BulkDock/SCRATCH/511015/C25235-P93/C25235-P93.minimised.mol

>  <scratch_subdir>  (788) 
/opt/xchem-fragalysis-2/maxwin/BulkDock/SCRATCH/511015/C25235-P93

>  <fragmenstein_runtime>  (788) 
20.0757474899292

>  <fragmenstein_outcome>  (788) 
too moved

>  <fragmenstein_mode>  (788) 
expansion

>  <fragmenstein_error>  (788) 


$$$$
C25235-P116
     RDKit          3D

 42 44  0  0  0  0  0  0  0  0999 V2000
    9.8636   -8.0498   27.3162 C   0  0  0  0  0  0  0  0  0  0  0  0
    9.2859   -8.3335   25.9278 C   0  0  0  0  0  0  0  0  0  0  0  0
    8.2482   -9.5121   25.9697 C   0  0  0  0  0  0  0  0  0  0  0  0
    7.0953   -9.3937   26.9212 C   0  0  0  0  0  0  0  0  0  0  0  0
    6.1537   -8.4211   27.1875 C   0  0  0  0  0  0  0  0  0  0  0  0
    5.2951   -8.8265   28.1830 N   0  0  0  0  0  0  0  0  0  0  0  0
    5.6665  -10.0458   28.4912 C   0  0  0  0  0  0  0  0  0  0  0  0
    6.7116  -10.4473   27.7187 N   0  0  0  0  0  0  0  0  0  0  0  0
   10.4772   -8.6705   24.9473 C   0  0  0  0  0  0  0  0  0  0  0  0
   10.6126   -9.8143   24.6185 O   0  0  0  0  0  0  0  0  0  0  0  0
   11.2468   -7.4898   24.6003 N   0  0  0  0  0  0  0  0  0  0  0  0
   12.4895   -7.3413   23.8170 C   0  0  0  0  0  0  0  0  0  0  0  0
   12.5506   -6.1871   22.7793 C   0  0  0  0  0  0  0  0  0  0  0  0
   13.8183   -6.1088   21.9321 C   0  0  0  0  0  0  0  0  0  0  0  0
   14.9497   -6.8961   22.0456 C   0  0  0  0  0  0  0  0  0  0  0  0
   15.8154   -6.5891   21.0286 N   0  0  0  0  0  0  0  0  0  0  0  0
   15.2984   -5.5936   20.2404 C   0  0  0  0  0  0  0  0  0  0  0  0
   15.8209   -5.0079   19.0763 C   0  0  0  0  0  0  0  0  0  0  0  0
   15.0565   -4.0326   18.4381 C   0  0  0  0  0  0  0  0  0  0  0  0
   13.8440   -3.6439   18.9784 C   0  0  0  0  0  0  0  0  0  0  0  0
   13.1369   -2.6979   18.3445 F   0  0  0  0  0  0  0  0  0  0  0  0
   13.3548   -4.2075   20.1629 C   0  0  0  0  0  0  0  0  0  0  0  0
   14.0692   -5.2396   20.7981 C   0  0  0  0  0  0  0  0  0  0  0  0
   10.3539   -8.9405   27.7247 H   0  0  0  0  0  0  0  0  0  0  0  0
   10.6127   -7.2520   27.2847 H   0  0  0  0  0  0  0  0  0  0  0  0
    9.0844   -7.7361   28.0174 H   0  0  0  0  0  0  0  0  0  0  0  0
    8.7799   -7.4353   25.5536 H   0  0  0  0  0  0  0  0  0  0  0  0
    7.8410   -9.6470   24.9596 H   0  0  0  0  0  0  0  0  0  0  0  0
    8.7876  -10.4421   26.1975 H   0  0  0  0  0  0  0  0  0  0  0  0
    6.0462   -7.4488   26.7206 H   0  0  0  0  0  0  0  0  0  0  0  0
    5.2135  -10.6887   29.2356 H   0  0  0  0  0  0  0  0  0  0  0  0
    7.1392  -11.3592   27.7379 H   0  0  0  0  0  0  0  0  0  0  0  0
   10.8957   -6.6978   25.1298 H   0  0  0  0  0  0  0  0  0  0  0  0
   13.2916   -7.2152   24.5529 H   0  0  0  0  0  0  0  0  0  0  0  0
   12.6596   -8.3012   23.3157 H   0  0  0  0  0  0  0  0  0  0  0  0
   12.4115   -5.2293   23.2947 H   0  0  0  0  0  0  0  0  0  0  0  0
   11.7137   -6.3064   22.0812 H   0  0  0  0  0  0  0  0  0  0  0  0
   15.2041   -7.6838   22.7422 H   0  0  0  0  0  0  0  0  0  0  0  0
   16.6959   -7.0526   20.8545 H   0  0  0  0  0  0  0  0  0  0  0  0
   16.7701   -5.3292   18.6615 H   0  0  0  0  0  0  0  0  0  0  0  0
   15.4039   -3.5763   17.5177 H   0  0  0  0  0  0  0  0  0  0  0  0
   12.4230   -3.8732   20.5907 H   0  0  0  0  0  0  0  0  0  0  0  0
  1  2  1  0
  2  3  1  0
  3  4  1  0
  4  5  2  0
  5  6  1  0
  6  7  2  0
  7  8  1  0
  2  9  1  0
  9 10  2  0
  9 11  1  0
 11 12  1  0
 12 13  1  0
 13 14  1  0
 14 15  2  0
 15 16  1  0
 16 17  1  0
 17 18  2  0
 18 19  1  0
 19 20  2  0
 20 21  1  0
 20 22  1  0
 22 23  2  0
  8  4  1  0
 23 14  1  0
 23 17  1  0
  1 24  1  0
  1 25  1  0
  1 26  1  0
  2 27  1  0
  3 28  1  0
  3 29  1  0
  5 30  1  0
  7 31  1  0
  8 32  1  0
 11 33  1  0
 12 34  1  0
 12 35  1  0
 13 36  1  0
 13 37  1  0
 15 38  1  0
 16 39  1  0
 18 40  1  0
 19 41  1  0
 22 42  1  0
M  END
>  <Energy>  (789) 
16.065586966939108

>  <compound_id>  (789) 
25235

>  <target_id>  (789) 
1

>  <reference_id>  (789) 
116

>  <inspiration_ids>  (789) 
[93, 116]

>  <energy_score>  (789) 
-13.419654468007252

>  <distance_score>  (789) 
6.872539637843422

>  <path>  (789) 
/opt/xchem-fragalysis-2/maxwin/BulkDock/SCRATCH/511015/C25235-P116/C25235-P116.minimised.mol

>  <scratch_subdir>  (789) 
/opt/xchem-fragalysis-2/maxwin/BulkDock/SCRATCH/511015/C25235-P116

>  <fragmenstein_runtime>  (789) 
16.390902757644653

>  <fragmenstein_outcome>  (789) 
too moved

>  <fragmenstein_mode>  (789) 
expansion

>  <fragmenstein_error>  (789) 


$$$$
C25245-P93
     RDKit          3D

 40 42  0  0  0  0  0  0  0  0999 V2000
    5.2643   -1.5663   12.5184 C   0  0  0  0  0  0  0  0  0  0  0  0
    5.5186   -2.0029   13.9600 C   0  0  0  0  0  0  0  0  0  0  0  0
    4.2822   -1.7626   14.8768 C   0  0  0  0  0  0  0  0  0  0  0  0
    3.6892   -2.9765   15.4701 N   0  0  0  0  0  0  0  0  0  0  0  0
    2.4487   -3.1738   16.1740 C   0  0  0  0  0  0  0  0  0  0  0  0
    1.5468   -2.4195   16.3873 O   0  0  0  0  0  0  0  0  0  0  0  0
    2.2865   -4.5386   16.7373 C   0  0  0  0  0  0  0  0  0  0  0  0
    1.2438   -4.9849   17.5541 C   0  0  0  0  0  0  0  0  0  0  0  0
    1.3699   -6.3039   17.9059 N   0  0  0  0  0  0  0  0  0  0  0  0
    2.4626   -6.6981   17.3043 C   0  0  0  0  0  0  0  0  0  0  0  0
    3.0651   -5.6732   16.6244 N   0  0  0  0  0  0  0  0  0  0  0  0
    6.7906   -1.4171   14.3962 N   0  0  0  0  0  0  0  0  0  0  0  0
    7.9858   -2.0149   14.7984 C   0  0  0  0  0  0  0  0  0  0  0  0
    8.2564   -3.1478   14.9666 O   0  0  0  0  0  0  0  0  0  0  0  0
    9.1597   -1.1577   15.1211 C   0  0  0  0  0  0  0  0  0  0  0  0
   10.4290   -1.7267   15.2965 C   0  0  0  0  0  0  0  0  0  0  0  0
   11.3761   -0.7459   15.5864 C   0  0  0  0  0  0  0  0  0  0  0  0
   12.7435   -0.8039   15.8922 C   0  0  0  0  0  0  0  0  0  0  0  0
   13.4070    0.3845   16.1469 C   0  0  0  0  0  0  0  0  0  0  0  0
   14.7008    0.3358   16.4921 F   0  0  0  0  0  0  0  0  0  0  0  0
   12.7486    1.6074   16.0662 C   0  0  0  0  0  0  0  0  0  0  0  0
   11.3802    1.6775   15.7459 C   0  0  0  0  0  0  0  0  0  0  0  0
   10.7013    0.4698   15.5280 C   0  0  0  0  0  0  0  0  0  0  0  0
    9.3689    0.1964   15.2186 N   0  0  0  0  0  0  0  0  0  0  0  0
    6.1678   -1.6395   11.9037 H   0  0  0  0  0  0  0  0  0  0  0  0
    4.4965   -2.2030   12.0649 H   0  0  0  0  0  0  0  0  0  0  0  0
    4.9037   -0.5370   12.4478 H   0  0  0  0  0  0  0  0  0  0  0  0
    5.6836   -3.0733   13.9547 H   0  0  0  0  0  0  0  0  0  0  0  0
    4.5345   -1.1015   15.7130 H   0  0  0  0  0  0  0  0  0  0  0  0
    3.4712   -1.2712   14.3275 H   0  0  0  0  0  0  0  0  0  0  0  0
    4.2512   -3.8076   15.5560 H   0  0  0  0  0  0  0  0  0  0  0  0
    0.4003   -4.3970   17.8966 H   0  0  0  0  0  0  0  0  0  0  0  0
    2.8701   -7.7003   17.3168 H   0  0  0  0  0  0  0  0  0  0  0  0
    3.9083   -5.7721   16.0798 H   0  0  0  0  0  0  0  0  0  0  0  0
    6.9446   -0.4247   14.2760 H   0  0  0  0  0  0  0  0  0  0  0  0
   10.6364   -2.7879   15.1954 H   0  0  0  0  0  0  0  0  0  0  0  0
   13.2731   -1.7489   15.9464 H   0  0  0  0  0  0  0  0  0  0  0  0
   13.3053    2.5189   16.2682 H   0  0  0  0  0  0  0  0  0  0  0  0
   10.8745    2.6361   15.6914 H   0  0  0  0  0  0  0  0  0  0  0  0
    8.6648    0.8978   15.0581 H   0  0  0  0  0  0  0  0  0  0  0  0
  1  2  1  0
  2  3  1  0
  3  4  1  0
  4  5  1  0
  5  6  2  0
  5  7  1  0
  7  8  2  0
  8  9  1  0
  9 10  2  0
 10 11  1  0
  2 12  1  0
 12 13  1  0
 13 14  2  0
 13 15  1  0
 15 16  2  0
 16 17  1  0
 17 18  2  0
 18 19  1  0
 19 20  1  0
 19 21  2  0
 21 22  1  0
 22 23  2  0
 23 24  1  0
 11  7  1  0
 24 15  1  0
 23 17  1  0
  1 25  1  0
  1 26  1  0
  1 27  1  0
  2 28  1  0
  3 29  1  0
  3 30  1  0
  4 31  1  0
  8 32  1  0
 10 33  1  0
 11 34  1  0
 12 35  1  0
 16 36  1  0
 18 37  1  0
 21 38  1  0
 22 39  1  0
 24 40  1  0
M  END
>  <Energy>  (790) 
-14.319044148876554

>  <compound_id>  (790) 
25245

>  <target_id>  (790) 
1

>  <reference_id>  (790) 
93

>  <inspiration_ids>  (790) 
[93, 116]

>  <energy_score>  (790) 
3.5081687962190813

>  <distance_score>  (790) 
9.38407893157694

>  <path>  (790) 
/opt/xchem-fragalysis-2/maxwin/BulkDock/SCRATCH/511015/C25245-P93/C25245-P93.minimised.mol

>  <scratch_subdir>  (790) 
/opt/xchem-fragalysis-2/maxwin/BulkDock/SCRATCH/511015/C25245-P93

>  <fragmenstein_runtime>  (790) 
25.25933575630188

>  <fragmenstein_outcome>  (790) 
too moved

>  <fragmenstein_mode>  (790) 
expansion

>  <fragmenstein_error>  (790) 


$$$$
C25245-P116
     RDKit          3D

 40 42  0  0  0  0  0  0  0  0999 V2000
   11.6437   -2.8956   25.6606 C   0  0  0  0  0  0  0  0  0  0  0  0
   11.2556   -4.1694   24.9092 C   0  0  0  0  0  0  0  0  0  0  0  0
   11.3305   -5.4695   25.7640 C   0  0  0  0  0  0  0  0  0  0  0  0
   10.0299   -5.9709   26.2527 N   0  0  0  0  0  0  0  0  0  0  0  0
    9.2047   -7.0585   25.7955 C   0  0  0  0  0  0  0  0  0  0  0  0
    9.3247   -7.7860   24.8510 O   0  0  0  0  0  0  0  0  0  0  0  0
    8.0155   -7.2978   26.6316 C   0  0  0  0  0  0  0  0  0  0  0  0
    7.6146   -6.9107   27.9007 C   0  0  0  0  0  0  0  0  0  0  0  0
    6.4139   -7.4800   28.2709 N   0  0  0  0  0  0  0  0  0  0  0  0
    6.0569   -8.2065   27.2401 C   0  0  0  0  0  0  0  0  0  0  0  0
    6.9656   -8.1167   26.2256 N   0  0  0  0  0  0  0  0  0  0  0  0
   12.0263   -4.2114   23.6684 N   0  0  0  0  0  0  0  0  0  0  0  0
   13.4341   -4.2632   23.4417 C   0  0  0  0  0  0  0  0  0  0  0  0
   14.3437   -4.3658   24.2086 O   0  0  0  0  0  0  0  0  0  0  0  0
   13.7477   -4.0579   22.0248 C   0  0  0  0  0  0  0  0  0  0  0  0
   13.1235   -4.4614   20.8547 C   0  0  0  0  0  0  0  0  0  0  0  0
   13.8168   -3.8972   19.7437 C   0  0  0  0  0  0  0  0  0  0  0  0
   13.6243   -3.9204   18.3495 C   0  0  0  0  0  0  0  0  0  0  0  0
   14.5038   -3.2034   17.5412 C   0  0  0  0  0  0  0  0  0  0  0  0
   14.3233   -3.2067   16.2146 F   0  0  0  0  0  0  0  0  0  0  0  0
   15.5603   -2.4767   18.0741 C   0  0  0  0  0  0  0  0  0  0  0  0
   15.7814   -2.4546   19.4538 C   0  0  0  0  0  0  0  0  0  0  0  0
   14.8915   -3.1761   20.2621 C   0  0  0  0  0  0  0  0  0  0  0  0
   14.8654   -3.3495   21.6284 N   0  0  0  0  0  0  0  0  0  0  0  0
   11.5177   -2.0097   25.0288 H   0  0  0  0  0  0  0  0  0  0  0  0
   11.0155   -2.7694   26.5486 H   0  0  0  0  0  0  0  0  0  0  0  0
   12.6878   -2.9268   25.9892 H   0  0  0  0  0  0  0  0  0  0  0  0
   10.2206   -4.0364   24.6135 H   0  0  0  0  0  0  0  0  0  0  0  0
   11.7608   -6.2808   25.1662 H   0  0  0  0  0  0  0  0  0  0  0  0
   11.9646   -5.3228   26.6441 H   0  0  0  0  0  0  0  0  0  0  0  0
    9.5791   -5.5237   27.0406 H   0  0  0  0  0  0  0  0  0  0  0  0
    8.1410   -6.2679   28.5941 H   0  0  0  0  0  0  0  0  0  0  0  0
    5.1614   -8.8038   27.1656 H   0  0  0  0  0  0  0  0  0  0  0  0
    6.8971   -8.5675   25.3206 H   0  0  0  0  0  0  0  0  0  0  0  0
   11.5568   -4.0363   22.7876 H   0  0  0  0  0  0  0  0  0  0  0  0
   12.2424   -5.0858   20.7932 H   0  0  0  0  0  0  0  0  0  0  0  0
   12.8143   -4.4833   17.8998 H   0  0  0  0  0  0  0  0  0  0  0  0
   16.2221   -1.9353   17.4050 H   0  0  0  0  0  0  0  0  0  0  0  0
   16.6140   -1.9027   19.8778 H   0  0  0  0  0  0  0  0  0  0  0  0
   15.5350   -2.9610   22.2790 H   0  0  0  0  0  0  0  0  0  0  0  0
  1  2  1  0
  2  3  1  0
  3  4  1  0
  4  5  1  0
  5  6  2  0
  5  7  1  0
  7  8  2  0
  8  9  1  0
  9 10  2  0
 10 11  1  0
  2 12  1  0
 12 13  1  0
 13 14  2  0
 13 15  1  0
 15 16  2  0
 16 17  1  0
 17 18  2  0
 18 19  1  0
 19 20  1  0
 19 21  2  0
 21 22  1  0
 22 23  2  0
 23 24  1  0
 11  7  1  0
 24 15  1  0
 23 17  1  0
  1 25  1  0
  1 26  1  0
  1 27  1  0
  2 28  1  0
  3 29  1  0
  3 30  1  0
  4 31  1  0
  8 32  1  0
 10 33  1  0
 11 34  1  0
 12 35  1  0
 16 36  1  0
 18 37  1  0
 21 38  1  0
 22 39  1  0
 24 40  1  0
M  END
>  <Energy>  (791) 
-39.636235473053503

>  <compound_id>  (791) 
25245

>  <target_id>  (791) 
1

>  <reference_id>  (791) 
116

>  <inspiration_ids>  (791) 
[93, 116]

>  <energy_score>  (791) 
-21.8090225279538

>  <distance_score>  (791) 
8.093843128524277

>  <path>  (791) 
/opt/xchem-fragalysis-2/maxwin/BulkDock/SCRATCH/511015/C25245-P116/C25245-P116.minimised.mol

>  <scratch_subdir>  (791) 
/opt/xchem-fragalysis-2/maxwin/BulkDock/SCRATCH/511015/C25245-P116

>  <fragmenstein_runtime>  (791) 
18.982548475265503

>  <fragmenstein_outcome>  (791) 
too moved

>  <fragmenstein_mode>  (791) 
expansion

>  <fragmenstein_error>  (791) 


$$$$
C25246-P93
     RDKit          3D

 43 46  0  0  0  0  0  0  0  0999 V2000
   10.7579   -8.3120   23.8631 O   0  0  0  0  0  0  0  0  0  0  0  0
   11.4435   -8.2163   24.8493 C   0  0  0  0  0  0  0  0  0  0  0  0
   10.7868   -8.2427   26.2605 C   0  0  0  0  0  0  0  0  0  0  0  0
    9.3791   -8.8248   26.3310 C   0  0  0  0  0  0  0  0  0  0  0  0
    8.2738   -8.4482   27.0778 C   0  0  0  0  0  0  0  0  0  0  0  0
    7.2099   -9.2941   26.8817 N   0  0  0  0  0  0  0  0  0  0  0  0
    7.6613  -10.2103   26.0553 C   0  0  0  0  0  0  0  0  0  0  0  0
    8.9582   -9.9685   25.6887 N   0  0  0  0  0  0  0  0  0  0  0  0
   12.8860   -8.1653   24.9912 N   0  0  0  0  0  0  0  0  0  0  0  0
   13.3751   -6.7106   24.9529 C   0  0  0  0  0  0  0  0  0  0  0  0
   13.1789   -5.7829   23.7323 C   0  0  0  0  0  0  0  0  0  0  0  0
   13.5649   -6.3830   22.3828 C   0  0  0  0  0  0  0  0  0  0  0  0
   14.6991   -5.6827   21.6427 C   0  0  0  0  0  0  0  0  0  0  0  0
   16.0385   -5.6484   21.9780 C   0  0  0  0  0  0  0  0  0  0  0  0
   16.7204   -4.9615   21.0033 N   0  0  0  0  0  0  0  0  0  0  0  0
   15.8635   -4.5433   20.0144 C   0  0  0  0  0  0  0  0  0  0  0  0
   16.1169   -3.8477   18.8211 C   0  0  0  0  0  0  0  0  0  0  0  0
   15.0340   -3.5475   17.9884 C   0  0  0  0  0  0  0  0  0  0  0  0
   13.7460   -3.9172   18.3474 C   0  0  0  0  0  0  0  0  0  0  0  0
   13.5195   -4.6011   19.5492 C   0  0  0  0  0  0  0  0  0  0  0  0
   14.5879   -4.9433   20.4015 C   0  0  0  0  0  0  0  0  0  0  0  0
   13.7189   -7.8903   22.5201 C   0  0  0  0  0  0  0  0  0  0  0  0
   13.9849   -8.3288   23.9650 C   0  0  0  0  0  0  0  0  0  0  0  0
   11.4251   -8.8235   26.9370 H   0  0  0  0  0  0  0  0  0  0  0  0
   10.7559   -7.2087   26.6235 H   0  0  0  0  0  0  0  0  0  0  0  0
    8.1994   -7.6049   27.7537 H   0  0  0  0  0  0  0  0  0  0  0  0
    7.1197  -11.0685   25.6813 H   0  0  0  0  0  0  0  0  0  0  0  0
    9.5040  -10.5379   25.0546 H   0  0  0  0  0  0  0  0  0  0  0  0
   14.3904   -6.6143   25.3765 H   0  0  0  0  0  0  0  0  0  0  0  0
   12.7781   -6.2323   25.7461 H   0  0  0  0  0  0  0  0  0  0  0  0
   12.1251   -5.4941   23.7140 H   0  0  0  0  0  0  0  0  0  0  0  0
   13.7185   -4.8449   23.9154 H   0  0  0  0  0  0  0  0  0  0  0  0
   12.7190   -6.2394   21.7064 H   0  0  0  0  0  0  0  0  0  0  0  0
   16.5741   -6.0653   22.8200 H   0  0  0  0  0  0  0  0  0  0  0  0
   17.7173   -4.7972   20.9997 H   0  0  0  0  0  0  0  0  0  0  0  0
   17.1238   -3.5504   18.5455 H   0  0  0  0  0  0  0  0  0  0  0  0
   15.2043   -3.0167   17.0547 H   0  0  0  0  0  0  0  0  0  0  0  0
   12.9080   -3.6831   17.6968 H   0  0  0  0  0  0  0  0  0  0  0  0
   12.5157   -4.8919   19.8285 H   0  0  0  0  0  0  0  0  0  0  0  0
   14.5146   -8.2731   21.8694 H   0  0  0  0  0  0  0  0  0  0  0  0
   12.7949   -8.3743   22.1781 H   0  0  0  0  0  0  0  0  0  0  0  0
   15.0032   -8.1016   24.3228 H   0  0  0  0  0  0  0  0  0  0  0  0
   14.0262   -9.4274   23.8918 H   0  0  0  0  0  0  0  0  0  0  0  0
  1  2  2  0
  2  3  1  0
  3  4  1  0
  4  5  2  0
  5  6  1  0
  6  7  2  0
  7  8  1  0
  2  9  1  0
  9 10  1  0
 10 11  1  0
 11 12  1  0
 12 13  1  0
 13 14  2  0
 14 15  1  0
 15 16  1  0
 16 17  2  0
 17 18  1  0
 18 19  2  0
 19 20  1  0
 20 21  2  0
 12 22  1  0
 22 23  1  0
  8  4  1  0
 23  9  1  0
 21 13  1  0
 21 16  1  0
  3 24  1  0
  3 25  1  0
  5 26  1  0
  7 27  1  0
  8 28  1  0
 10 29  1  0
 10 30  1  0
 11 31  1  0
 11 32  1  0
 12 33  1  0
 14 34  1  0
 15 35  1  0
 17 36  1  0
 18 37  1  0
 19 38  1  0
 20 39  1  0
 22 40  1  0
 22 41  1  0
 23 42  1  0
 23 43  1  0
M  END
>  <Energy>  (792) 
104.15880565555173

>  <compound_id>  (792) 
25246

>  <target_id>  (792) 
1

>  <reference_id>  (792) 
93

>  <inspiration_ids>  (792) 
[93, 116]

>  <energy_score>  (792) 
50.61534081093578

>  <distance_score>  (792) 
7.742573510320263

>  <path>  (792) 
/opt/xchem-fragalysis-2/maxwin/BulkDock/SCRATCH/511015/C25246-P93/C25246-P93.minimised.mol

>  <scratch_subdir>  (792) 
/opt/xchem-fragalysis-2/maxwin/BulkDock/SCRATCH/511015/C25246-P93

>  <fragmenstein_runtime>  (792) 
24.48352026939392

>  <fragmenstein_outcome>  (792) 
too moved

>  <fragmenstein_mode>  (792) 
expansion

>  <fragmenstein_error>  (792) 


$$$$
C25246-P116
     RDKit          3D

 43 46  0  0  0  0  0  0  0  0999 V2000
    9.7315   -7.3535   27.7612 O   0  0  0  0  0  0  0  0  0  0  0  0
    9.6691   -7.3783   26.5584 C   0  0  0  0  0  0  0  0  0  0  0  0
    8.5267   -8.1718   25.8586 C   0  0  0  0  0  0  0  0  0  0  0  0
    7.4199   -8.6729   26.7662 C   0  0  0  0  0  0  0  0  0  0  0  0
    6.2211   -8.1052   27.1625 C   0  0  0  0  0  0  0  0  0  0  0  0
    5.4886   -8.9638   27.9510 N   0  0  0  0  0  0  0  0  0  0  0  0
    6.2134  -10.0541   28.0269 C   0  0  0  0  0  0  0  0  0  0  0  0
    7.3788   -9.9332   27.3206 N   0  0  0  0  0  0  0  0  0  0  0  0
   10.4715   -6.6780   25.5500 N   0  0  0  0  0  0  0  0  0  0  0  0
   11.6707   -7.5305   25.1487 C   0  0  0  0  0  0  0  0  0  0  0  0
   12.3374   -7.2661   23.7766 C   0  0  0  0  0  0  0  0  0  0  0  0
   13.1171   -5.9413   23.7625 C   0  0  0  0  0  0  0  0  0  0  0  0
   13.6606   -5.5612   22.3751 C   0  0  0  0  0  0  0  0  0  0  0  0
   14.1527   -6.4943   21.4752 C   0  0  0  0  0  0  0  0  0  0  0  0
   14.5157   -5.8746   20.3105 N   0  0  0  0  0  0  0  0  0  0  0  0
   14.4366   -4.5185   20.4642 C   0  0  0  0  0  0  0  0  0  0  0  0
   14.8070   -3.5141   19.5607 C   0  0  0  0  0  0  0  0  0  0  0  0
   14.7181   -2.1954   19.9921 C   0  0  0  0  0  0  0  0  0  0  0  0
   14.2290   -1.9045   21.2608 C   0  0  0  0  0  0  0  0  0  0  0  0
   13.8023   -2.9263   22.1275 C   0  0  0  0  0  0  0  0  0  0  0  0
   13.9199   -4.2781   21.7445 C   0  0  0  0  0  0  0  0  0  0  0  0
   12.2008   -4.9544   24.4639 C   0  0  0  0  0  0  0  0  0  0  0  0
   11.5538   -5.6186   25.7068 C   0  0  0  0  0  0  0  0  0  0  0  0
    8.9716   -9.0209   25.3284 H   0  0  0  0  0  0  0  0  0  0  0  0
    8.0645   -7.5085   25.1217 H   0  0  0  0  0  0  0  0  0  0  0  0
    5.8441   -7.1223   26.9054 H   0  0  0  0  0  0  0  0  0  0  0  0
    5.9547  -10.9559   28.5657 H   0  0  0  0  0  0  0  0  0  0  0  0
    8.0835  -10.6509   27.2322 H   0  0  0  0  0  0  0  0  0  0  0  0
   11.2387   -8.5370   25.0326 H   0  0  0  0  0  0  0  0  0  0  0  0
   12.3917   -7.7039   25.9667 H   0  0  0  0  0  0  0  0  0  0  0  0
   13.0183   -8.0990   23.5611 H   0  0  0  0  0  0  0  0  0  0  0  0
   11.5751   -7.2776   22.9884 H   0  0  0  0  0  0  0  0  0  0  0  0
   14.0039   -6.0767   24.3997 H   0  0  0  0  0  0  0  0  0  0  0  0
   14.2403   -7.5691   21.5524 H   0  0  0  0  0  0  0  0  0  0  0  0
   14.8152   -6.3397   19.4590 H   0  0  0  0  0  0  0  0  0  0  0  0
   15.1918   -3.7575   18.5757 H   0  0  0  0  0  0  0  0  0  0  0  0
   15.0401   -1.3920   19.3360 H   0  0  0  0  0  0  0  0  0  0  0  0
   14.1537   -0.8712   21.5924 H   0  0  0  0  0  0  0  0  0  0  0  0
   13.4062   -2.6557   23.1014 H   0  0  0  0  0  0  0  0  0  0  0  0
   11.4358   -4.5629   23.7890 H   0  0  0  0  0  0  0  0  0  0  0  0
   12.7829   -4.0889   24.8017 H   0  0  0  0  0  0  0  0  0  0  0  0
   12.2718   -5.8322   26.5176 H   0  0  0  0  0  0  0  0  0  0  0  0
   10.9710   -4.8042   26.1665 H   0  0  0  0  0  0  0  0  0  0  0  0
  1  2  2  0
  2  3  1  0
  3  4  1  0
  4  5  2  0
  5  6  1  0
  6  7  2  0
  7  8  1  0
  2  9  1  0
  9 10  1  0
 10 11  1  0
 11 12  1  0
 12 13  1  0
 13 14  2  0
 14 15  1  0
 15 16  1  0
 16 17  2  0
 17 18  1  0
 18 19  2  0
 19 20  1  0
 20 21  2  0
 12 22  1  0
 22 23  1  0
  8  4  1  0
 23  9  1  0
 21 13  1  0
 21 16  1  0
  3 24  1  0
  3 25  1  0
  5 26  1  0
  7 27  1  0
  8 28  1  0
 10 29  1  0
 10 30  1  0
 11 31  1  0
 11 32  1  0
 12 33  1  0
 14 34  1  0
 15 35  1  0
 17 36  1  0
 18 37  1  0
 19 38  1  0
 20 39  1  0
 22 40  1  0
 22 41  1  0
 23 42  1  0
 23 43  1  0
M  END
>  <Energy>  (793) 
104.39710386725073

>  <compound_id>  (793) 
25246

>  <target_id>  (793) 
1

>  <reference_id>  (793) 
116

>  <inspiration_ids>  (793) 
[93, 116]

>  <energy_score>  (793) 
50.85363902264015

>  <distance_score>  (793) 
7.37457757134434

>  <path>  (793) 
/opt/xchem-fragalysis-2/maxwin/BulkDock/SCRATCH/511015/C25246-P116/C25246-P116.minimised.mol

>  <scratch_subdir>  (793) 
/opt/xchem-fragalysis-2/maxwin/BulkDock/SCRATCH/511015/C25246-P116

>  <fragmenstein_runtime>  (793) 
10.745811700820923

>  <fragmenstein_outcome>  (793) 
too moved

>  <fragmenstein_mode>  (793) 
expansion

>  <fragmenstein_error>  (793) 


$$$$
C25247-P93
     RDKit          3D

 33 35  0  0  0  0  0  0  0  0999 V2000
   11.4248  -10.1560   23.6161 O   0  0  0  0  0  0  0  0  0  0  0  0
   11.1095   -9.0822   24.0007 C   0  0  0  0  0  0  0  0  0  0  0  0
   11.7327   -7.6273   23.6625 N   0  0  0  0  0  0  0  0  0  0  0  0
   12.9584   -7.1833   22.5804 C   0  0  0  0  0  0  0  0  0  0  0  0
   12.8509   -5.8217   21.4968 C   0  0  0  0  0  0  0  0  0  0  0  0
   14.0087   -5.1873   20.5226 C   0  0  0  0  0  0  0  0  0  0  0  0
   15.3358   -5.0359   20.8808 C   0  0  0  0  0  0  0  0  0  0  0  0
   16.0181   -4.3354   19.9169 N   0  0  0  0  0  0  0  0  0  0  0  0
   15.1993   -3.9720   18.8803 C   0  0  0  0  0  0  0  0  0  0  0  0
   15.5008   -3.2346   17.7139 C   0  0  0  0  0  0  0  0  0  0  0  0
   14.5022   -2.9737   16.7744 C   0  0  0  0  0  0  0  0  0  0  0  0
   13.2432   -3.4704   16.9886 C   0  0  0  0  0  0  0  0  0  0  0  0
   12.0020   -3.1664   15.8414 Cl  0  0  0  0  0  0  0  0  0  0  0  0
   12.9864   -4.2244   18.1466 C   0  0  0  0  0  0  0  0  0  0  0  0
   13.9358   -4.4824   19.1769 C   0  0  0  0  0  0  0  0  0  0  0  0
    9.7641   -9.1903   24.9151 C   0  0  0  0  0  0  0  0  0  0  0  0
    8.9412   -8.3961   25.7321 C   0  0  0  0  0  0  0  0  0  0  0  0
    7.7059   -8.9756   26.0934 N   0  0  0  0  0  0  0  0  0  0  0  0
    7.7836  -10.2075   25.6584 C   0  0  0  0  0  0  0  0  0  0  0  0
    8.9969  -10.4133   25.0389 N   0  0  0  0  0  0  0  0  0  0  0  0
   11.2764   -6.9212   24.2275 H   0  0  0  0  0  0  0  0  0  0  0  0
   13.1427   -8.0825   21.9856 H   0  0  0  0  0  0  0  0  0  0  0  0
   13.8184   -7.0017   23.2328 H   0  0  0  0  0  0  0  0  0  0  0  0
   12.5513   -4.9727   22.1259 H   0  0  0  0  0  0  0  0  0  0  0  0
   12.0548   -6.0421   20.7854 H   0  0  0  0  0  0  0  0  0  0  0  0
   15.8563   -5.3438   21.7782 H   0  0  0  0  0  0  0  0  0  0  0  0
   16.9968   -4.0912   19.9772 H   0  0  0  0  0  0  0  0  0  0  0  0
   16.5076   -2.8592   17.5462 H   0  0  0  0  0  0  0  0  0  0  0  0
   14.7349   -2.3984   15.8830 H   0  0  0  0  0  0  0  0  0  0  0  0
   12.0150   -4.6607   18.2276 H   0  0  0  0  0  0  0  0  0  0  0  0
    9.1837   -7.3907   26.0541 H   0  0  0  0  0  0  0  0  0  0  0  0
    7.0615  -11.0024   25.7704 H   0  0  0  0  0  0  0  0  0  0  0  0
    9.3071  -11.2826   24.6222 H   0  0  0  0  0  0  0  0  0  0  0  0
  1  2  2  0
  2  3  1  0
  3  4  1  0
  4  5  1  0
  5  6  1  0
  6  7  2  0
  7  8  1  0
  8  9  1  0
  9 10  2  0
 10 11  1  0
 11 12  2  0
 12 13  1  0
 12 14  1  0
 14 15  2  0
  2 16  1  0
 16 17  2  0
 17 18  1  0
 18 19  2  0
 19 20  1  0
 15  6  1  0
 20 16  1  0
 15  9  1  0
  3 21  1  0
  4 22  1  0
  4 23  1  0
  5 24  1  0
  5 25  1  0
  7 26  1  0
  8 27  1  0
 10 28  1  0
 11 29  1  0
 14 30  1  0
 17 31  1  0
 19 32  1  0
 20 33  1  0
M  END
>  <Energy>  (794) 
79.113319743161455

>  <compound_id>  (794) 
25247

>  <target_id>  (794) 
1

>  <reference_id>  (794) 
93

>  <inspiration_ids>  (794) 
[93, 116]

>  <energy_score>  (794) 
83.93395107629539

>  <distance_score>  (794) 
7.613331556262734

>  <path>  (794) 
/opt/xchem-fragalysis-2/maxwin/BulkDock/SCRATCH/511015/C25247-P93/C25247-P93.minimised.mol

>  <scratch_subdir>  (794) 
/opt/xchem-fragalysis-2/maxwin/BulkDock/SCRATCH/511015/C25247-P93

>  <fragmenstein_runtime>  (794) 
10.070125579833984

>  <fragmenstein_outcome>  (794) 
too moved

>  <fragmenstein_mode>  (794) 
expansion

>  <fragmenstein_error>  (794) 


$$$$
C25247-P116
     RDKit          3D

 33 35  0  0  0  0  0  0  0  0999 V2000
   11.7547   -9.4600   23.5721 O   0  0  0  0  0  0  0  0  0  0  0  0
   11.4104   -8.4330   24.0776 C   0  0  0  0  0  0  0  0  0  0  0  0
   11.9142   -7.0948   23.9185 N   0  0  0  0  0  0  0  0  0  0  0  0
   13.0697   -6.5802   23.1616 C   0  0  0  0  0  0  0  0  0  0  0  0
   12.7443   -5.5227   22.0708 C   0  0  0  0  0  0  0  0  0  0  0  0
   13.9434   -4.8032   21.4524 C   0  0  0  0  0  0  0  0  0  0  0  0
   15.1058   -4.4325   22.1057 C   0  0  0  0  0  0  0  0  0  0  0  0
   15.9115   -3.7424   21.2383 N   0  0  0  0  0  0  0  0  0  0  0  0
   15.3005   -3.6079   20.0175 C   0  0  0  0  0  0  0  0  0  0  0  0
   15.7331   -2.9453   18.8569 C   0  0  0  0  0  0  0  0  0  0  0  0
   14.8958   -2.9593   17.7370 C   0  0  0  0  0  0  0  0  0  0  0  0
   13.6832   -3.6287   17.7819 C   0  0  0  0  0  0  0  0  0  0  0  0
   12.6507   -3.6204   16.4031 Cl  0  0  0  0  0  0  0  0  0  0  0  0
   13.2849   -4.2920   18.9457 C   0  0  0  0  0  0  0  0  0  0  0  0
   14.0830   -4.2824   20.1056 C   0  0  0  0  0  0  0  0  0  0  0  0
   10.2271   -8.5265   24.9647 C   0  0  0  0  0  0  0  0  0  0  0  0
    9.4762   -7.6378   25.7204 C   0  0  0  0  0  0  0  0  0  0  0  0
    8.3547   -8.2315   26.2577 N   0  0  0  0  0  0  0  0  0  0  0  0
    8.4080   -9.4859   25.8844 C   0  0  0  0  0  0  0  0  0  0  0  0
    9.5422   -9.7271   25.1655 N   0  0  0  0  0  0  0  0  0  0  0  0
   11.4362   -6.4834   24.5668 H   0  0  0  0  0  0  0  0  0  0  0  0
   13.5801   -7.4358   22.7057 H   0  0  0  0  0  0  0  0  0  0  0  0
   13.7419   -6.1564   23.9146 H   0  0  0  0  0  0  0  0  0  0  0  0
   12.1601   -6.0047   21.2786 H   0  0  0  0  0  0  0  0  0  0  0  0
   12.0961   -4.7523   22.5082 H   0  0  0  0  0  0  0  0  0  0  0  0
   15.4281   -4.5863   23.1267 H   0  0  0  0  0  0  0  0  0  0  0  0
   16.8157   -3.3565   21.4708 H   0  0  0  0  0  0  0  0  0  0  0  0
   16.6885   -2.4311   18.8256 H   0  0  0  0  0  0  0  0  0  0  0  0
   15.2069   -2.4483   16.8301 H   0  0  0  0  0  0  0  0  0  0  0  0
   12.3491   -4.8216   18.9695 H   0  0  0  0  0  0  0  0  0  0  0  0
    9.6479   -6.5810   25.8837 H   0  0  0  0  0  0  0  0  0  0  0  0
    7.6772  -10.2533   26.1059 H   0  0  0  0  0  0  0  0  0  0  0  0
    9.8189  -10.6142   24.7638 H   0  0  0  0  0  0  0  0  0  0  0  0
  1  2  2  0
  2  3  1  0
  3  4  1  0
  4  5  1  0
  5  6  1  0
  6  7  2  0
  7  8  1  0
  8  9  1  0
  9 10  2  0
 10 11  1  0
 11 12  2  0
 12 13  1  0
 12 14  1  0
 14 15  2  0
  2 16  1  0
 16 17  2  0
 17 18  1  0
 18 19  2  0
 19 20  1  0
 15  6  1  0
 20 16  1  0
 15  9  1  0
  3 21  1  0
  4 22  1  0
  4 23  1  0
  5 24  1  0
  5 25  1  0
  7 26  1  0
  8 27  1  0
 10 28  1  0
 11 29  1  0
 14 30  1  0
 17 31  1  0
 19 32  1  0
 20 33  1  0
M  END
>  <Energy>  (795) 
-10.912767542504824

>  <compound_id>  (795) 
25247

>  <target_id>  (795) 
1

>  <reference_id>  (795) 
116

>  <inspiration_ids>  (795) 
[93, 116]

>  <energy_score>  (795) 
-5.665258170677134

>  <distance_score>  (795) 
8.211986277730585

>  <path>  (795) 
/opt/xchem-fragalysis-2/maxwin/BulkDock/SCRATCH/511015/C25247-P116/C25247-P116.minimised.mol

>  <scratch_subdir>  (795) 
/opt/xchem-fragalysis-2/maxwin/BulkDock/SCRATCH/511015/C25247-P116

>  <fragmenstein_runtime>  (795) 
13.147120714187622

>  <fragmenstein_outcome>  (795) 
too moved

>  <fragmenstein_mode>  (795) 
expansion

>  <fragmenstein_error>  (795) 


$$$$
C25248-P93
     RDKit          3D

 46 48  0  0  0  0  0  0  0  0999 V2000
    7.2982   -2.6224   14.8754 C   0  0  0  0  0  0  0  0  0  0  0  0
    8.0840   -3.8630   15.5573 C   0  0  0  0  0  0  0  0  0  0  0  0
    6.8899   -5.4940   16.2425 C   0  0  0  0  0  0  0  0  0  0  0  0
    7.1445   -6.5974   16.9273 N   0  0  0  0  0  0  0  0  0  0  0  0
    5.9060   -6.8857   16.4931 C   0  0  0  0  0  0  0  0  0  0  0  0
    7.2841   -6.9149   18.5652 C   0  0  0  0  0  0  0  0  0  0  0  0
    7.0372   -6.0788   19.3667 O   0  0  0  0  0  0  0  0  0  0  0  0
    8.1904   -8.9020   18.9244 C   0  0  0  0  0  0  0  0  0  0  0  0
    8.3984  -10.5089   18.1020 C   0  0  0  0  0  0  0  0  0  0  0  0
    9.1529  -11.0587   17.0856 C   0  0  0  0  0  0  0  0  0  0  0  0
    8.9511  -12.4190   16.9823 N   0  0  0  0  0  0  0  0  0  0  0  0
    8.0528  -12.7289   17.8807 C   0  0  0  0  0  0  0  0  0  0  0  0
    7.6888  -11.6321   18.5879 N   0  0  0  0  0  0  0  0  0  0  0  0
    9.7185   -3.2266   15.1300 N   0  0  0  0  0  0  0  0  0  0  0  0
   11.0504   -3.5591   15.6553 C   0  0  0  0  0  0  0  0  0  0  0  0
   11.3940   -4.3980   16.4471 O   0  0  0  0  0  0  0  0  0  0  0  0
   12.2008   -2.6832   15.2606 C   0  0  0  0  0  0  0  0  0  0  0  0
   12.3209   -1.9795   14.0648 C   0  0  0  0  0  0  0  0  0  0  0  0
   13.4279   -1.1711   13.7974 C   0  0  0  0  0  0  0  0  0  0  0  0
   14.4737   -1.0497   14.7168 C   0  0  0  0  0  0  0  0  0  0  0  0
   14.4151   -1.7735   15.9172 C   0  0  0  0  0  0  0  0  0  0  0  0
   15.2866   -1.9119   17.0340 C   0  0  0  0  0  0  0  0  0  0  0  0
   14.7024   -2.7915   17.9155 C   0  0  0  0  0  0  0  0  0  0  0  0
   13.5117   -3.1879   17.3743 N   0  0  0  0  0  0  0  0  0  0  0  0
   13.2963   -2.5679   16.1562 C   0  0  0  0  0  0  0  0  0  0  0  0
    7.4736   -1.7004   15.4376 H   0  0  0  0  0  0  0  0  0  0  0  0
    6.2261   -2.7915   14.7582 H   0  0  0  0  0  0  0  0  0  0  0  0
    7.6646   -2.4209   13.8721 H   0  0  0  0  0  0  0  0  0  0  0  0
    8.6370   -4.4924   14.8622 H   0  0  0  0  0  0  0  0  0  0  0  0
    7.5219   -6.0371   15.5556 H   0  0  0  0  0  0  0  0  0  0  0  0
    6.7377   -5.3557   17.3740 H   0  0  0  0  0  0  0  0  0  0  0  0
    5.0692   -6.1470   16.5021 H   0  0  0  0  0  0  0  0  0  0  0  0
    5.4800   -7.3199   17.3997 H   0  0  0  0  0  0  0  0  0  0  0  0
    6.2904   -7.2248   15.5023 H   0  0  0  0  0  0  0  0  0  0  0  0
    9.2036   -8.7372   19.3156 H   0  0  0  0  0  0  0  0  0  0  0  0
    7.5850   -9.7262   19.4842 H   0  0  0  0  0  0  0  0  0  0  0  0
    9.8494  -10.5763   16.4127 H   0  0  0  0  0  0  0  0  0  0  0  0
    7.6321  -13.7103   18.0500 H   0  0  0  0  0  0  0  0  0  0  0  0
    6.9694  -11.6251   19.2950 H   0  0  0  0  0  0  0  0  0  0  0  0
    9.8128   -2.5072   14.4058 H   0  0  0  0  0  0  0  0  0  0  0  0
   11.5787   -2.0872   13.2933 H   0  0  0  0  0  0  0  0  0  0  0  0
   13.4894   -0.6399   12.8505 H   0  0  0  0  0  0  0  0  0  0  0  0
   15.3324   -0.4243   14.4908 H   0  0  0  0  0  0  0  0  0  0  0  0
   16.2439   -1.4264   17.1699 H   0  0  0  0  0  0  0  0  0  0  0  0
   15.0296   -3.1713   18.8740 H   0  0  0  0  0  0  0  0  0  0  0  0
   12.8559   -3.8573   17.7677 H   0  0  0  0  0  0  0  0  0  0  0  0
  1  2  1  0
  2  3  1  0
  3  4  1  0
  4  5  1  0
  4  6  1  0
  6  7  2  0
  6  8  1  0
  8  9  1  0
  9 10  2  0
 10 11  1  0
 11 12  2  0
 12 13  1  0
  2 14  1  0
 14 15  1  0
 15 16  2  0
 15 17  1  0
 17 18  2  0
 18 19  1  0
 19 20  2  0
 20 21  1  0
 21 22  1  0
 22 23  2  0
 23 24  1  0
 24 25  1  0
 13  9  1  0
 25 17  1  0
 25 21  2  0
  1 26  1  0
  1 27  1  0
  1 28  1  0
  2 29  1  0
  3 30  1  0
  3 31  1  0
  5 32  1  0
  5 33  1  0
  5 34  1  0
  8 35  1  0
  8 36  1  0
 10 37  1  0
 12 38  1  0
 13 39  1  0
 14 40  1  0
 18 41  1  0
 19 42  1  0
 20 43  1  0
 22 44  1  0
 23 45  1  0
 24 46  1  0
M  END
>  <Energy>  (796) 
687.07924896798727

>  <compound_id>  (796) 
25248

>  <target_id>  (796) 
1

>  <reference_id>  (796) 
93

>  <inspiration_ids>  (796) 
[93, 116]

>  <energy_score>  (796) 
610.9566455001495

>  <distance_score>  (796) 
8.798280312621301

>  <path>  (796) 
/opt/xchem-fragalysis-2/maxwin/BulkDock/SCRATCH/511015/C25248-P93/C25248-P93.minimised.mol

>  <scratch_subdir>  (796) 
/opt/xchem-fragalysis-2/maxwin/BulkDock/SCRATCH/511015/C25248-P93

>  <fragmenstein_runtime>  (796) 
14.452855348587036

>  <fragmenstein_outcome>  (796) 
too moved

>  <fragmenstein_mode>  (796) 
expansion

>  <fragmenstein_error>  (796) 


$$$$
C25248-P116
     RDKit          3D

 46 48  0  0  0  0  0  0  0  0999 V2000
   12.4388   -3.0841   24.8391 C   0  0  0  0  0  0  0  0  0  0  0  0
   11.9699   -4.3911   24.1652 C   0  0  0  0  0  0  0  0  0  0  0  0
   12.3239   -5.7148   25.0020 C   0  0  0  0  0  0  0  0  0  0  0  0
   11.4330   -6.6076   25.9874 N   0  0  0  0  0  0  0  0  0  0  0  0
   11.1334   -5.2811   26.5753 C   0  0  0  0  0  0  0  0  0  0  0  0
   10.1998   -7.3398   25.7501 C   0  0  0  0  0  0  0  0  0  0  0  0
    9.4909   -7.3843   24.7756 O   0  0  0  0  0  0  0  0  0  0  0  0
    9.8550   -8.2178   26.9882 C   0  0  0  0  0  0  0  0  0  0  0  0
    8.3779   -8.4788   27.2416 C   0  0  0  0  0  0  0  0  0  0  0  0
    7.7408   -9.0717   28.3220 C   0  0  0  0  0  0  0  0  0  0  0  0
    6.3768   -9.0761   28.1754 N   0  0  0  0  0  0  0  0  0  0  0  0
    6.1702   -8.5098   27.0122 C   0  0  0  0  0  0  0  0  0  0  0  0
    7.3399   -8.1767   26.3881 N   0  0  0  0  0  0  0  0  0  0  0  0
   12.5465   -4.3387   22.8053 N   0  0  0  0  0  0  0  0  0  0  0  0
   13.9083   -4.2159   22.3631 C   0  0  0  0  0  0  0  0  0  0  0  0
   14.9333   -4.2052   22.9826 O   0  0  0  0  0  0  0  0  0  0  0  0
   14.0486   -3.9585   20.8804 C   0  0  0  0  0  0  0  0  0  0  0  0
   13.2712   -4.5721   19.8930 C   0  0  0  0  0  0  0  0  0  0  0  0
   13.4020   -4.2318   18.5393 C   0  0  0  0  0  0  0  0  0  0  0  0
   14.3233   -3.2753   18.1160 C   0  0  0  0  0  0  0  0  0  0  0  0
   15.1418   -2.6613   19.0750 C   0  0  0  0  0  0  0  0  0  0  0  0
   16.1709   -1.6844   19.0019 C   0  0  0  0  0  0  0  0  0  0  0  0
   16.6321   -1.4714   20.2790 C   0  0  0  0  0  0  0  0  0  0  0  0
   15.9221   -2.2817   21.1225 N   0  0  0  0  0  0  0  0  0  0  0  0
   14.9936   -3.0172   20.4180 C   0  0  0  0  0  0  0  0  0  0  0  0
   11.8614   -2.8592   25.7395 H   0  0  0  0  0  0  0  0  0  0  0  0
   12.3300   -2.2250   24.1721 H   0  0  0  0  0  0  0  0  0  0  0  0
   13.4948   -3.1452   25.1236 H   0  0  0  0  0  0  0  0  0  0  0  0
   10.8969   -4.3121   24.0257 H   0  0  0  0  0  0  0  0  0  0  0  0
   13.3044   -5.5951   25.4912 H   0  0  0  0  0  0  0  0  0  0  0  0
   12.5145   -6.4670   24.2211 H   0  0  0  0  0  0  0  0  0  0  0  0
   10.5789   -5.5022   27.5005 H   0  0  0  0  0  0  0  0  0  0  0  0
   12.0056   -4.7347   26.9597 H   0  0  0  0  0  0  0  0  0  0  0  0
   10.3950   -4.6994   26.0115 H   0  0  0  0  0  0  0  0  0  0  0  0
   10.2809   -7.7648   27.8906 H   0  0  0  0  0  0  0  0  0  0  0  0
   10.3554   -9.1823   26.8379 H   0  0  0  0  0  0  0  0  0  0  0  0
    8.2032   -9.4824   29.2107 H   0  0  0  0  0  0  0  0  0  0  0  0
    5.2155   -8.3055   26.5602 H   0  0  0  0  0  0  0  0  0  0  0  0
    7.4171   -7.7457   25.4737 H   0  0  0  0  0  0  0  0  0  0  0  0
   11.9281   -4.2232   22.0080 H   0  0  0  0  0  0  0  0  0  0  0  0
   12.5479   -5.3331   20.1694 H   0  0  0  0  0  0  0  0  0  0  0  0
   12.7866   -4.7252   17.7923 H   0  0  0  0  0  0  0  0  0  0  0  0
   14.4177   -3.0333   17.0620 H   0  0  0  0  0  0  0  0  0  0  0  0
   16.5390   -1.1983   18.1082 H   0  0  0  0  0  0  0  0  0  0  0  0
   17.4100   -0.8243   20.6610 H   0  0  0  0  0  0  0  0  0  0  0  0
   16.0613   -2.3780   22.1223 H   0  0  0  0  0  0  0  0  0  0  0  0
  1  2  1  0
  2  3  1  0
  3  4  1  0
  4  5  1  0
  4  6  1  0
  6  7  2  0
  6  8  1  0
  8  9  1  0
  9 10  2  0
 10 11  1  0
 11 12  2  0
 12 13  1  0
  2 14  1  0
 14 15  1  0
 15 16  2  0
 15 17  1  0
 17 18  2  0
 18 19  1  0
 19 20  2  0
 20 21  1  0
 21 22  1  0
 22 23  2  0
 23 24  1  0
 24 25  1  0
 13  9  1  0
 25 17  1  0
 25 21  2  0
  1 26  1  0
  1 27  1  0
  1 28  1  0
  2 29  1  0
  3 30  1  0
  3 31  1  0
  5 32  1  0
  5 33  1  0
  5 34  1  0
  8 35  1  0
  8 36  1  0
 10 37  1  0
 12 38  1  0
 13 39  1  0
 14 40  1  0
 18 41  1  0
 19 42  1  0
 20 43  1  0
 22 44  1  0
 23 45  1  0
 24 46  1  0
M  END
>  <Energy>  (797) 
129.04737735654194

>  <compound_id>  (797) 
25248

>  <target_id>  (797) 
1

>  <reference_id>  (797) 
116

>  <inspiration_ids>  (797) 
[93, 116]

>  <energy_score>  (797) 
52.92477388871032

>  <distance_score>  (797) 
7.773516456496864

>  <path>  (797) 
/opt/xchem-fragalysis-2/maxwin/BulkDock/SCRATCH/511015/C25248-P116/C25248-P116.minimised.mol

>  <scratch_subdir>  (797) 
/opt/xchem-fragalysis-2/maxwin/BulkDock/SCRATCH/511015/C25248-P116

>  <fragmenstein_runtime>  (797) 
19.096442222595215

>  <fragmenstein_outcome>  (797) 
too moved

>  <fragmenstein_mode>  (797) 
expansion

>  <fragmenstein_error>  (797) 


$$$$
C25233-P93
     RDKit          3D

 43 45  0  0  0  0  0  0  0  0999 V2000
    7.0173   -4.1370   23.1512 C   0  0  0  0  0  0  0  0  0  0  0  0
    7.4760   -5.4125   22.5077 C   0  0  0  0  0  0  0  0  0  0  0  0
    8.3126   -4.8418   20.6650 C   0  0  0  0  0  0  0  0  0  0  0  0
   10.3416   -5.2275   20.4555 N   0  0  0  0  0  0  0  0  0  0  0  0
   11.4296   -5.1823   19.0267 C   0  0  0  0  0  0  0  0  0  0  0  0
   11.1571   -5.0007   17.7945 O   0  0  0  0  0  0  0  0  0  0  0  0
   12.9353   -5.2479   19.3432 C   0  0  0  0  0  0  0  0  0  0  0  0
   13.6814   -4.5464   18.3493 C   0  0  0  0  0  0  0  0  0  0  0  0
   14.9951   -4.1312   18.5370 C   0  0  0  0  0  0  0  0  0  0  0  0
   15.5766   -4.3669   19.7837 C   0  0  0  0  0  0  0  0  0  0  0  0
   16.8532   -4.0577   20.3187 C   0  0  0  0  0  0  0  0  0  0  0  0
   16.8643   -4.4796   21.6255 C   0  0  0  0  0  0  0  0  0  0  0  0
   15.6397   -5.0266   21.9038 N   0  0  0  0  0  0  0  0  0  0  0  0
   15.2504   -5.5473   23.1960 C   0  0  0  0  0  0  0  0  0  0  0  0
   14.8290   -4.9955   20.7865 C   0  0  0  0  0  0  0  0  0  0  0  0
   13.4957   -5.4256   20.6040 C   0  0  0  0  0  0  0  0  0  0  0  0
    6.8982   -6.8318   23.4097 N   0  0  0  0  0  0  0  0  0  0  0  0
    7.6930   -7.8580   24.4503 C   0  0  0  0  0  0  0  0  0  0  0  0
    8.8694   -7.8568   24.7166 O   0  0  0  0  0  0  0  0  0  0  0  0
    6.9951   -8.8529   25.2861 C   0  0  0  0  0  0  0  0  0  0  0  0
    6.8809   -8.8254   26.6791 C   0  0  0  0  0  0  0  0  0  0  0  0
    6.7492  -10.0666   27.2457 N   0  0  0  0  0  0  0  0  0  0  0  0
    7.0329  -10.8941   26.2710 C   0  0  0  0  0  0  0  0  0  0  0  0
    7.1384  -10.2252   25.0793 N   0  0  0  0  0  0  0  0  0  0  0  0
    7.1835   -3.8350   24.1524 H   0  0  0  0  0  0  0  0  0  0  0  0
    6.3905   -3.3701   22.7454 H   0  0  0  0  0  0  0  0  0  0  0  0
    7.6291   -3.6577   22.4806 H   0  0  0  0  0  0  0  0  0  0  0  0
    8.1843   -5.4365   23.2654 H   0  0  0  0  0  0  0  0  0  0  0  0
    8.2289   -3.8079   20.8600 H   0  0  0  0  0  0  0  0  0  0  0  0
    7.4882   -5.0031   19.9515 H   0  0  0  0  0  0  0  0  0  0  0  0
   10.8649   -5.2951   21.2476 H   0  0  0  0  0  0  0  0  0  0  0  0
   13.2240   -4.2970   17.3901 H   0  0  0  0  0  0  0  0  0  0  0  0
   15.5326   -3.6127   17.7493 H   0  0  0  0  0  0  0  0  0  0  0  0
   17.6696   -3.5655   19.8069 H   0  0  0  0  0  0  0  0  0  0  0  0
   17.6393   -4.4197   22.3786 H   0  0  0  0  0  0  0  0  0  0  0  0
   14.3954   -4.9701   23.5575 H   0  0  0  0  0  0  0  0  0  0  0  0
   16.0839   -5.4523   23.8967 H   0  0  0  0  0  0  0  0  0  0  0  0
   14.9850   -6.6010   23.0779 H   0  0  0  0  0  0  0  0  0  0  0  0
   12.9364   -5.8345   21.4319 H   0  0  0  0  0  0  0  0  0  0  0  0
    5.9258   -7.1283   23.3247 H   0  0  0  0  0  0  0  0  0  0  0  0
    7.0494   -7.9797   27.3294 H   0  0  0  0  0  0  0  0  0  0  0  0
    7.1192  -11.9707   26.3454 H   0  0  0  0  0  0  0  0  0  0  0  0
    7.3036  -10.6575   24.1865 H   0  0  0  0  0  0  0  0  0  0  0  0
  1  2  1  0
  2  3  1  0
  3  4  1  0
  4  5  1  0
  5  6  2  0
  5  7  1  0
  7  8  2  0
  8  9  1  0
  9 10  2  0
 10 11  1  0
 11 12  2  0
 12 13  1  0
 13 14  1  0
 13 15  1  0
 15 16  2  0
  2 17  1  0
 17 18  1  0
 18 19  2  0
 18 20  1  0
 20 21  2  0
 21 22  1  0
 22 23  2  0
 23 24  1  0
 16  7  1  0
 24 20  1  0
 15 10  1  0
  1 25  1  0
  1 26  1  0
  1 27  1  0
  2 28  1  0
  3 29  1  0
  3 30  1  0
  4 31  1  0
  8 32  1  0
  9 33  1  0
 11 34  1  0
 12 35  1  0
 14 36  1  0
 14 37  1  0
 14 38  1  0
 16 39  1  0
 17 40  1  0
 21 41  1  0
 23 42  1  0
 24 43  1  0
M  END
>  <Energy>  (798) 
410.68649083802654

>  <compound_id>  (798) 
25233

>  <target_id>  (798) 
1

>  <reference_id>  (798) 
93

>  <inspiration_ids>  (798) 
[93, 116]

>  <energy_score>  (798) 
401.198192904404

>  <distance_score>  (798) 
7.727811435652303

>  <path>  (798) 
/opt/xchem-fragalysis-2/maxwin/BulkDock/SCRATCH/511015/C25233-P93/C25233-P93.minimised.mol

>  <scratch_subdir>  (798) 
/opt/xchem-fragalysis-2/maxwin/BulkDock/SCRATCH/511015/C25233-P93

>  <fragmenstein_runtime>  (798) 
16.72174382209778

>  <fragmenstein_outcome>  (798) 
too moved

>  <fragmenstein_mode>  (798) 
expansion

>  <fragmenstein_error>  (798) 


$$$$
C25233-P116
     RDKit          3D

 43 45  0  0  0  0  0  0  0  0999 V2000
   11.3202   -8.8789   23.3656 C   0  0  0  0  0  0  0  0  0  0  0  0
   11.0368   -7.9635   24.5538 C   0  0  0  0  0  0  0  0  0  0  0  0
   11.7457   -6.5196   24.3288 C   0  0  0  0  0  0  0  0  0  0  0  0
   12.2582   -6.0251   22.9676 N   0  0  0  0  0  0  0  0  0  0  0  0
   13.4781   -5.0806   22.6114 C   0  0  0  0  0  0  0  0  0  0  0  0
   14.3070   -4.6129   23.3053 O   0  0  0  0  0  0  0  0  0  0  0  0
   13.6418   -4.5894   21.1020 C   0  0  0  0  0  0  0  0  0  0  0  0
   12.8286   -4.8974   20.0168 C   0  0  0  0  0  0  0  0  0  0  0  0
   13.0225   -4.3804   18.6896 C   0  0  0  0  0  0  0  0  0  0  0  0
   14.0894   -3.5270   18.4113 C   0  0  0  0  0  0  0  0  0  0  0  0
   14.5736   -2.8558   17.2549 C   0  0  0  0  0  0  0  0  0  0  0  0
   15.7023   -2.1628   17.6237 C   0  0  0  0  0  0  0  0  0  0  0  0
   15.9084   -2.3866   18.9588 N   0  0  0  0  0  0  0  0  0  0  0  0
   17.0025   -1.8344   19.7270 C   0  0  0  0  0  0  0  0  0  0  0  0
   14.9283   -3.2087   19.4706 C   0  0  0  0  0  0  0  0  0  0  0  0
   14.7136   -3.7094   20.7854 C   0  0  0  0  0  0  0  0  0  0  0  0
    9.5975   -8.1697   25.1232 N   0  0  0  0  0  0  0  0  0  0  0  0
    8.8547   -9.4965   25.5925 C   0  0  0  0  0  0  0  0  0  0  0  0
    9.2003  -10.6211   25.5398 O   0  0  0  0  0  0  0  0  0  0  0  0
    7.4990   -9.3832   26.2951 C   0  0  0  0  0  0  0  0  0  0  0  0
    6.4456   -8.4858   26.4966 C   0  0  0  0  0  0  0  0  0  0  0  0
    5.4470   -8.9798   27.3501 N   0  0  0  0  0  0  0  0  0  0  0  0
    5.8591  -10.1736   27.6882 C   0  0  0  0  0  0  0  0  0  0  0  0
    6.9465  -10.5244   26.9454 N   0  0  0  0  0  0  0  0  0  0  0  0
   10.8650   -8.5006   22.4489 H   0  0  0  0  0  0  0  0  0  0  0  0
   10.9527   -9.8931   23.5433 H   0  0  0  0  0  0  0  0  0  0  0  0
   12.3988   -8.9502   23.1861 H   0  0  0  0  0  0  0  0  0  0  0  0
   11.6122   -8.3964   25.3852 H   0  0  0  0  0  0  0  0  0  0  0  0
   11.1277   -5.7246   24.7599 H   0  0  0  0  0  0  0  0  0  0  0  0
   12.6552   -6.5241   24.9442 H   0  0  0  0  0  0  0  0  0  0  0  0
   11.6940   -6.1744   22.1434 H   0  0  0  0  0  0  0  0  0  0  0  0
   11.9738   -5.5361   20.1863 H   0  0  0  0  0  0  0  0  0  0  0  0
   12.3369   -4.6350   17.8897 H   0  0  0  0  0  0  0  0  0  0  0  0
   14.1481   -2.8962   16.2612 H   0  0  0  0  0  0  0  0  0  0  0  0
   16.3696   -1.5384   17.0447 H   0  0  0  0  0  0  0  0  0  0  0  0
   17.5841   -2.6605   20.1441 H   0  0  0  0  0  0  0  0  0  0  0  0
   17.6372   -1.2273   19.0764 H   0  0  0  0  0  0  0  0  0  0  0  0
   16.5860   -1.2117   20.5228 H   0  0  0  0  0  0  0  0  0  0  0  0
   15.3997   -3.4168   21.5789 H   0  0  0  0  0  0  0  0  0  0  0  0
    9.0482   -7.3581   25.3925 H   0  0  0  0  0  0  0  0  0  0  0  0
    6.3480   -7.4868   26.0873 H   0  0  0  0  0  0  0  0  0  0  0  0
    5.4219  -10.8358   28.4233 H   0  0  0  0  0  0  0  0  0  0  0  0
    7.4309  -11.4110   26.9738 H   0  0  0  0  0  0  0  0  0  0  0  0
  1  2  1  0
  2  3  1  0
  3  4  1  0
  4  5  1  0
  5  6  2  0
  5  7  1  0
  7  8  2  0
  8  9  1  0
  9 10  2  0
 10 11  1  0
 11 12  2  0
 12 13  1  0
 13 14  1  0
 13 15  1  0
 15 16  2  0
  2 17  1  0
 17 18  1  0
 18 19  2  0
 18 20  1  0
 20 21  2  0
 21 22  1  0
 22 23  2  0
 23 24  1  0
 16  7  1  0
 24 20  1  0
 15 10  1  0
  1 25  1  0
  1 26  1  0
  1 27  1  0
  2 28  1  0
  3 29  1  0
  3 30  1  0
  4 31  1  0
  8 32  1  0
  9 33  1  0
 11 34  1  0
 12 35  1  0
 14 36  1  0
 14 37  1  0
 14 38  1  0
 16 39  1  0
 17 40  1  0
 21 41  1  0
 23 42  1  0
 24 43  1  0
M  END
>  <Energy>  (799) 
73.459706446057282

>  <compound_id>  (799) 
25233

>  <target_id>  (799) 
1

>  <reference_id>  (799) 
116

>  <inspiration_ids>  (799) 
[93, 116]

>  <energy_score>  (799) 
54.98841698637693

>  <distance_score>  (799) 
7.868882418368804

>  <path>  (799) 
/opt/xchem-fragalysis-2/maxwin/BulkDock/SCRATCH/511015/C25233-P116/C25233-P116.minimised.mol

>  <scratch_subdir>  (799) 
/opt/xchem-fragalysis-2/maxwin/BulkDock/SCRATCH/511015/C25233-P116

>  <fragmenstein_runtime>  (799) 
25.69711947441101

>  <fragmenstein_outcome>  (799) 
too moved

>  <fragmenstein_mode>  (799) 
expansion

>  <fragmenstein_error>  (799) 


$$$$
C25249-P93
     RDKit          3D

 34 37  0  0  0  0  0  0  0  0999 V2000
    7.8716   -4.2463   20.1685 O   0  0  0  0  0  0  0  0  0  0  0  0
    8.3796   -4.9006   20.9562 C   0  0  0  0  0  0  0  0  0  0  0  0
   10.3918   -5.4772   20.5053 C   0  0  0  0  0  0  0  0  0  0  0  0
   11.3836   -5.4714   19.5021 C   0  0  0  0  0  0  0  0  0  0  0  0
   12.8655   -5.0618   19.0756 C   0  0  0  0  0  0  0  0  0  0  0  0
   13.7268   -4.6615   20.0355 C   0  0  0  0  0  0  0  0  0  0  0  0
   15.0196   -4.2327   20.0566 N   0  0  0  0  0  0  0  0  0  0  0  0
   15.3224   -3.8128   21.3263 C   0  0  0  0  0  0  0  0  0  0  0  0
   14.1829   -3.9491   22.0953 C   0  0  0  0  0  0  0  0  0  0  0  0
   13.1689   -4.5071   21.2712 C   0  0  0  0  0  0  0  0  0  0  0  0
   11.7239   -4.7901   21.3702 C   0  0  0  0  0  0  0  0  0  0  0  0
    7.7926   -5.4169   22.6403 N   0  0  0  0  0  0  0  0  0  0  0  0
    6.7042   -5.0692   23.3437 C   0  0  0  0  0  0  0  0  0  0  0  0
    6.4548   -6.8396   23.9194 C   0  0  0  0  0  0  0  0  0  0  0  0
    7.2042   -8.2386   25.0543 C   0  0  0  0  0  0  0  0  0  0  0  0
    7.5409   -8.2460   26.4172 C   0  0  0  0  0  0  0  0  0  0  0  0
    7.7084   -9.5119   26.9170 N   0  0  0  0  0  0  0  0  0  0  0  0
    7.5343  -10.3072   25.8980 C   0  0  0  0  0  0  0  0  0  0  0  0
    7.2142   -9.5979   24.7840 N   0  0  0  0  0  0  0  0  0  0  0  0
    6.9560   -6.7896   22.5861 C   0  0  0  0  0  0  0  0  0  0  0  0
   10.7786   -5.3635   18.5394 H   0  0  0  0  0  0  0  0  0  0  0  0
   13.0841   -4.9841   18.0119 H   0  0  0  0  0  0  0  0  0  0  0  0
   15.6449   -4.1952   19.2632 H   0  0  0  0  0  0  0  0  0  0  0  0
   16.3007   -3.4184   21.5657 H   0  0  0  0  0  0  0  0  0  0  0  0
   14.0772   -3.6428   23.1280 H   0  0  0  0  0  0  0  0  0  0  0  0
   11.5595   -4.3485   22.3645 H   0  0  0  0  0  0  0  0  0  0  0  0
    7.3465   -4.2262   23.6361 H   0  0  0  0  0  0  0  0  0  0  0  0
    6.2921   -4.3253   24.0001 H   0  0  0  0  0  0  0  0  0  0  0  0
    5.3937   -7.1333   23.9620 H   0  0  0  0  0  0  0  0  0  0  0  0
    7.6569   -7.4195   27.1101 H   0  0  0  0  0  0  0  0  0  0  0  0
    7.5922  -11.3878   25.9114 H   0  0  0  0  0  0  0  0  0  0  0  0
    6.8550   -9.9978   23.9317 H   0  0  0  0  0  0  0  0  0  0  0  0
    6.8251   -7.0570   21.5340 H   0  0  0  0  0  0  0  0  0  0  0  0
    5.9020   -6.8517   22.4128 H   0  0  0  0  0  0  0  0  0  0  0  0
  1  2  2  0
  2  3  1  0
  3  4  2  0
  4  5  1  0
  5  6  2  0
  6  7  1  0
  7  8  1  0
  8  9  2  0
  9 10  1  0
 10 11  2  0
  2 12  1  0
 12 13  1  0
 13 14  1  0
 14 15  1  0
 15 16  2  0
 16 17  1  0
 17 18  2  0
 18 19  1  0
 14 20  1  0
 11  3  1  0
 20 12  1  0
 10  6  1  0
 19 15  1  0
  4 21  1  0
  5 22  1  0
  7 23  1  0
  8 24  1  0
  9 25  1  0
 11 26  1  0
 13 27  1  0
 13 28  1  0
 14 29  1  0
 16 30  1  0
 18 31  1  0
 19 32  1  0
 20 33  1  0
 20 34  1  0
M  END
>  <Energy>  (800) 
596.69078845609954

>  <compound_id>  (800) 
25249

>  <target_id>  (800) 
1

>  <reference_id>  (800) 
93

>  <inspiration_ids>  (800) 
[93, 116]

>  <energy_score>  (800) 
530.980348134891

>  <distance_score>  (800) 
7.628600067088232

>  <path>  (800) 
/opt/xchem-fragalysis-2/maxwin/BulkDock/SCRATCH/511015/C25249-P93/C25249-P93.minimised.mol

>  <scratch_subdir>  (800) 
/opt/xchem-fragalysis-2/maxwin/BulkDock/SCRATCH/511015/C25249-P93

>  <fragmenstein_runtime>  (800) 
16.07523226737976

>  <fragmenstein_outcome>  (800) 
too moved

>  <fragmenstein_mode>  (800) 
expansion

>  <fragmenstein_error>  (800) 


$$$$
C25249-P116
     RDKit          3D

 34 37  0  0  0  0  0  0  0  0999 V2000
   12.6980   -7.9005   24.9994 O   0  0  0  0  0  0  0  0  0  0  0  0
   11.6983   -7.5676   24.4222 C   0  0  0  0  0  0  0  0  0  0  0  0
   12.0760   -6.4074   23.2207 C   0  0  0  0  0  0  0  0  0  0  0  0
   11.6124   -6.5278   21.9080 C   0  0  0  0  0  0  0  0  0  0  0  0
   12.0128   -5.6640   20.8482 C   0  0  0  0  0  0  0  0  0  0  0  0
   13.0970   -4.8137   20.9387 C   0  0  0  0  0  0  0  0  0  0  0  0
   13.7290   -4.0509   19.9840 N   0  0  0  0  0  0  0  0  0  0  0  0
   14.7858   -3.3973   20.5559 C   0  0  0  0  0  0  0  0  0  0  0  0
   14.8014   -3.7519   21.8940 C   0  0  0  0  0  0  0  0  0  0  0  0
   13.7268   -4.6741   22.1536 C   0  0  0  0  0  0  0  0  0  0  0  0
   13.1872   -5.4621   23.2774 C   0  0  0  0  0  0  0  0  0  0  0  0
   10.1683   -8.1304   24.5564 N   0  0  0  0  0  0  0  0  0  0  0  0
    9.5842   -9.3506   25.4111 C   0  0  0  0  0  0  0  0  0  0  0  0
    8.2008   -8.6447   25.5669 C   0  0  0  0  0  0  0  0  0  0  0  0
    7.0426   -9.1673   26.6765 C   0  0  0  0  0  0  0  0  0  0  0  0
    6.8506  -10.4367   27.2104 C   0  0  0  0  0  0  0  0  0  0  0  0
    5.7014  -10.5170   27.9686 N   0  0  0  0  0  0  0  0  0  0  0  0
    5.1559   -9.3373   27.8499 C   0  0  0  0  0  0  0  0  0  0  0  0
    5.8585   -8.5261   27.0089 N   0  0  0  0  0  0  0  0  0  0  0  0
    9.1904   -7.3828   25.6776 C   0  0  0  0  0  0  0  0  0  0  0  0
   10.9021   -7.3165   21.6849 H   0  0  0  0  0  0  0  0  0  0  0  0
   11.4814   -5.6578   19.9253 H   0  0  0  0  0  0  0  0  0  0  0  0
   13.4623   -4.0288   19.0081 H   0  0  0  0  0  0  0  0  0  0  0  0
   15.4324   -2.7556   19.9738 H   0  0  0  0  0  0  0  0  0  0  0  0
   15.5262   -3.4106   22.6215 H   0  0  0  0  0  0  0  0  0  0  0  0
   13.7175   -5.3848   24.2276 H   0  0  0  0  0  0  0  0  0  0  0  0
   10.1794   -9.5189   26.3170 H   0  0  0  0  0  0  0  0  0  0  0  0
    9.5733  -10.2626   24.8086 H   0  0  0  0  0  0  0  0  0  0  0  0
    7.6379   -8.6234   24.6316 H   0  0  0  0  0  0  0  0  0  0  0  0
    7.4892  -11.3033   27.0900 H   0  0  0  0  0  0  0  0  0  0  0  0
    4.2288   -9.0469   28.2912 H   0  0  0  0  0  0  0  0  0  0  0  0
    5.5530   -7.6193   26.6725 H   0  0  0  0  0  0  0  0  0  0  0  0
    8.8171   -6.4252   25.3412 H   0  0  0  0  0  0  0  0  0  0  0  0
    9.7384   -7.2554   26.6202 H   0  0  0  0  0  0  0  0  0  0  0  0
  1  2  2  0
  2  3  1  0
  3  4  2  0
  4  5  1  0
  5  6  2  0
  6  7  1  0
  7  8  1  0
  8  9  2  0
  9 10  1  0
 10 11  2  0
  2 12  1  0
 12 13  1  0
 13 14  1  0
 14 15  1  0
 15 16  2  0
 16 17  1  0
 17 18  2  0
 18 19  1  0
 14 20  1  0
 11  3  1  0
 20 12  1  0
 10  6  1  0
 19 15  1  0
  4 21  1  0
  5 22  1  0
  7 23  1  0
  8 24  1  0
  9 25  1  0
 11 26  1  0
 13 27  1  0
 13 28  1  0
 14 29  1  0
 16 30  1  0
 18 31  1  0
 19 32  1  0
 20 33  1  0
 20 34  1  0
M  END
>  <Energy>  (801) 
133.00131985591193

>  <compound_id>  (801) 
25249

>  <target_id>  (801) 
1

>  <reference_id>  (801) 
116

>  <inspiration_ids>  (801) 
[93, 116]

>  <energy_score>  (801) 
63.11766678587702

>  <distance_score>  (801) 
7.665619033809736

>  <path>  (801) 
/opt/xchem-fragalysis-2/maxwin/BulkDock/SCRATCH/511015/C25249-P116/C25249-P116.minimised.mol

>  <scratch_subdir>  (801) 
/opt/xchem-fragalysis-2/maxwin/BulkDock/SCRATCH/511015/C25249-P116

>  <fragmenstein_runtime>  (801) 
4.760161399841309

>  <fragmenstein_outcome>  (801) 
too moved

>  <fragmenstein_mode>  (801) 
expansion

>  <fragmenstein_error>  (801) 


$$$$
C25250-P93
     RDKit          3D

 44 46  0  0  0  0  0  0  0  0999 V2000
    8.9382   -8.0178   25.0440 O   0  0  0  0  0  0  0  0  0  0  0  0
    9.7922   -8.7352   25.4832 C   0  0  0  0  0  0  0  0  0  0  0  0
    9.3874   -9.9743   26.3480 C   0  0  0  0  0  0  0  0  0  0  0  0
    8.0073   -9.9319   26.9822 C   0  0  0  0  0  0  0  0  0  0  0  0
    6.8566   -9.2031   26.7545 C   0  0  0  0  0  0  0  0  0  0  0  0
    5.8590   -9.5091   27.6563 N   0  0  0  0  0  0  0  0  0  0  0  0
    6.3598  -10.4778   28.3831 C   0  0  0  0  0  0  0  0  0  0  0  0
    7.6408  -10.7780   28.0096 N   0  0  0  0  0  0  0  0  0  0  0  0
   11.2345   -8.6935   25.3263 N   0  0  0  0  0  0  0  0  0  0  0  0
   12.1043   -7.7100   24.6648 C   0  0  0  0  0  0  0  0  0  0  0  0
   12.7483   -8.2144   23.3417 C   0  0  0  0  0  0  0  0  0  0  0  0
   13.9197   -9.1741   23.6269 C   0  0  0  0  0  0  0  0  0  0  0  0
   13.4783  -10.3372   24.3274 O   0  0  0  0  0  0  0  0  0  0  0  0
   13.1569   -7.1419   22.4113 N   0  0  0  0  0  0  0  0  0  0  0  0
   14.3009   -6.2702   22.4196 C   0  0  0  0  0  0  0  0  0  0  0  0
   15.1751   -6.1374   23.2263 O   0  0  0  0  0  0  0  0  0  0  0  0
   14.4368   -5.4330   21.1498 C   0  0  0  0  0  0  0  0  0  0  0  0
   13.3584   -4.9665   20.3776 C   0  0  0  0  0  0  0  0  0  0  0  0
   13.5534   -4.2794   19.1708 C   0  0  0  0  0  0  0  0  0  0  0  0
   14.8286   -3.9813   18.7020 C   0  0  0  0  0  0  0  0  0  0  0  0
   15.9298   -4.3740   19.4734 C   0  0  0  0  0  0  0  0  0  0  0  0
   17.3324   -4.2194   19.3119 C   0  0  0  0  0  0  0  0  0  0  0  0
   17.9398   -4.8065   20.3953 C   0  0  0  0  0  0  0  0  0  0  0  0
   16.9593   -5.3092   21.2060 N   0  0  0  0  0  0  0  0  0  0  0  0
   15.7134   -5.0765   20.6638 C   0  0  0  0  0  0  0  0  0  0  0  0
   10.1219  -10.0909   27.1544 H   0  0  0  0  0  0  0  0  0  0  0  0
    9.4482  -10.8550   25.6976 H   0  0  0  0  0  0  0  0  0  0  0  0
    6.6863   -8.4785   25.9702 H   0  0  0  0  0  0  0  0  0  0  0  0
    5.8630  -10.9941   29.1911 H   0  0  0  0  0  0  0  0  0  0  0  0
    8.2241  -11.4849   28.4366 H   0  0  0  0  0  0  0  0  0  0  0  0
   11.6526   -9.4127   25.9087 H   0  0  0  0  0  0  0  0  0  0  0  0
   11.4965   -6.8230   24.4747 H   0  0  0  0  0  0  0  0  0  0  0  0
   12.8773   -7.4223   25.3857 H   0  0  0  0  0  0  0  0  0  0  0  0
   11.9746   -8.7742   22.7998 H   0  0  0  0  0  0  0  0  0  0  0  0
   14.3746   -9.5010   22.6851 H   0  0  0  0  0  0  0  0  0  0  0  0
   14.6940   -8.6845   24.2268 H   0  0  0  0  0  0  0  0  0  0  0  0
   14.2565  -10.9203   24.3998 H   0  0  0  0  0  0  0  0  0  0  0  0
   12.6755   -7.0441   21.5301 H   0  0  0  0  0  0  0  0  0  0  0  0
   12.3372   -5.1137   20.7146 H   0  0  0  0  0  0  0  0  0  0  0  0
   12.7045   -3.9619   18.5759 H   0  0  0  0  0  0  0  0  0  0  0  0
   14.9641   -3.4409   17.7697 H   0  0  0  0  0  0  0  0  0  0  0  0
   17.8403   -3.7232   18.4953 H   0  0  0  0  0  0  0  0  0  0  0  0
   18.9826   -4.8988   20.6673 H   0  0  0  0  0  0  0  0  0  0  0  0
   17.0974   -5.7601   22.1037 H   0  0  0  0  0  0  0  0  0  0  0  0
  1  2  2  0
  2  3  1  0
  3  4  1  0
  4  5  2  0
  5  6  1  0
  6  7  2  0
  7  8  1  0
  2  9  1  0
  9 10  1  0
 10 11  1  0
 11 12  1  0
 12 13  1  0
 11 14  1  0
 14 15  1  0
 15 16  2  0
 15 17  1  0
 17 18  2  0
 18 19  1  0
 19 20  2  0
 20 21  1  0
 21 22  1  0
 22 23  2  0
 23 24  1  0
 24 25  1  0
  8  4  1  0
 25 17  1  0
 25 21  2  0
  3 26  1  0
  3 27  1  0
  5 28  1  0
  7 29  1  0
  8 30  1  0
  9 31  1  0
 10 32  1  0
 10 33  1  0
 11 34  1  0
 12 35  1  0
 12 36  1  0
 13 37  1  0
 14 38  1  0
 18 39  1  0
 19 40  1  0
 20 41  1  0
 22 42  1  0
 23 43  1  0
 24 44  1  0
M  END
>  <Energy>  (802) 
65.505190421821879

>  <compound_id>  (802) 
25250

>  <target_id>  (802) 
1

>  <reference_id>  (802) 
93

>  <inspiration_ids>  (802) 
[93, 116]

>  <energy_score>  (802) 
-16.267838642809295

>  <distance_score>  (802) 
8.287108698547206

>  <path>  (802) 
/opt/xchem-fragalysis-2/maxwin/BulkDock/SCRATCH/511015/C25250-P93/C25250-P93.minimised.mol

>  <scratch_subdir>  (802) 
/opt/xchem-fragalysis-2/maxwin/BulkDock/SCRATCH/511015/C25250-P93

>  <fragmenstein_runtime>  (802) 
23.609110355377197

>  <fragmenstein_outcome>  (802) 
too moved

>  <fragmenstein_mode>  (802) 
expansion

>  <fragmenstein_error>  (802) 


$$$$
C25250-P116
     RDKit          3D

 44 46  0  0  0  0  0  0  0  0999 V2000
    9.1826   -8.4606   24.6170 O   0  0  0  0  0  0  0  0  0  0  0  0
   10.1390   -8.7204   25.8938 C   0  0  0  0  0  0  0  0  0  0  0  0
    9.5723   -9.6962   26.8948 C   0  0  0  0  0  0  0  0  0  0  0  0
    8.1119   -9.5500   27.2375 C   0  0  0  0  0  0  0  0  0  0  0  0
    7.3693  -10.0431   28.2990 C   0  0  0  0  0  0  0  0  0  0  0  0
    6.0678   -9.6120   28.2528 N   0  0  0  0  0  0  0  0  0  0  0  0
    6.0038   -8.8781   27.1691 C   0  0  0  0  0  0  0  0  0  0  0  0
    7.1817   -8.8807   26.4775 N   0  0  0  0  0  0  0  0  0  0  0  0
   10.9930   -8.0885   25.6776 N   0  0  0  0  0  0  0  0  0  0  0  0
   11.6111   -7.1618   24.5946 C   0  0  0  0  0  0  0  0  0  0  0  0
   13.1059   -7.3020   24.1344 C   0  0  0  0  0  0  0  0  0  0  0  0
   14.0954   -7.1331   25.3035 C   0  0  0  0  0  0  0  0  0  0  0  0
   13.5885   -6.1835   26.2365 O   0  0  0  0  0  0  0  0  0  0  0  0
   13.4160   -6.3687   23.0204 N   0  0  0  0  0  0  0  0  0  0  0  0
   14.6415   -6.1295   22.3023 C   0  0  0  0  0  0  0  0  0  0  0  0
   15.7448   -6.5657   22.4726 O   0  0  0  0  0  0  0  0  0  0  0  0
   14.5211   -5.1897   21.1085 C   0  0  0  0  0  0  0  0  0  0  0  0
   13.3698   -5.0522   20.3173 C   0  0  0  0  0  0  0  0  0  0  0  0
   13.3723   -4.2910   19.1391 C   0  0  0  0  0  0  0  0  0  0  0  0
   14.4959   -3.5804   18.7274 C   0  0  0  0  0  0  0  0  0  0  0  0
   15.6619   -3.6783   19.4964 C   0  0  0  0  0  0  0  0  0  0  0  0
   16.9666   -3.1316   19.3585 C   0  0  0  0  0  0  0  0  0  0  0  0
   17.7338   -3.6301   20.3833 C   0  0  0  0  0  0  0  0  0  0  0  0
   16.9433   -4.4578   21.1322 N   0  0  0  0  0  0  0  0  0  0  0  0
   15.6556   -4.4844   20.6391 C   0  0  0  0  0  0  0  0  0  0  0  0
    9.7450  -10.7039   26.4994 H   0  0  0  0  0  0  0  0  0  0  0  0
   10.1621   -9.6021   27.8146 H   0  0  0  0  0  0  0  0  0  0  0  0
    7.7166  -10.6696   29.1109 H   0  0  0  0  0  0  0  0  0  0  0  0
    5.1479   -8.3299   26.8150 H   0  0  0  0  0  0  0  0  0  0  0  0
    7.3539   -8.4266   25.5851 H   0  0  0  0  0  0  0  0  0  0  0  0
   11.8589   -7.6415   25.8875 H   0  0  0  0  0  0  0  0  0  0  0  0
   11.3752   -6.1241   24.8788 H   0  0  0  0  0  0  0  0  0  0  0  0
   11.0317   -7.3809   23.6931 H   0  0  0  0  0  0  0  0  0  0  0  0
   13.2635   -8.3012   23.7107 H   0  0  0  0  0  0  0  0  0  0  0  0
   14.1980   -8.0820   25.8405 H   0  0  0  0  0  0  0  0  0  0  0  0
   15.0895   -6.8193   24.9740 H   0  0  0  0  0  0  0  0  0  0  0  0
   14.3528   -5.8451   26.7400 H   0  0  0  0  0  0  0  0  0  0  0  0
   12.6921   -5.7643   22.6486 H   0  0  0  0  0  0  0  0  0  0  0  0
   12.4617   -5.5957   20.5570 H   0  0  0  0  0  0  0  0  0  0  0  0
   12.4947   -4.2803   18.5006 H   0  0  0  0  0  0  0  0  0  0  0  0
   14.4777   -3.0033   17.8088 H   0  0  0  0  0  0  0  0  0  0  0  0
   17.3098   -2.4660   18.5778 H   0  0  0  0  0  0  0  0  0  0  0  0
   18.7759   -3.4857   20.6333 H   0  0  0  0  0  0  0  0  0  0  0  0
   17.2400   -5.0166   21.9241 H   0  0  0  0  0  0  0  0  0  0  0  0
  1  2  2  0
  2  3  1  0
  3  4  1  0
  4  5  2  0
  5  6  1  0
  6  7  2  0
  7  8  1  0
  2  9  1  0
  9 10  1  0
 10 11  1  0
 11 12  1  0
 12 13  1  0
 11 14  1  0
 14 15  1  0
 15 16  2  0
 15 17  1  0
 17 18  2  0
 18 19  1  0
 19 20  2  0
 20 21  1  0
 21 22  1  0
 22 23  2  0
 23 24  1  0
 24 25  1  0
  8  4  1  0
 25 17  1  0
 25 21  2  0
  3 26  1  0
  3 27  1  0
  5 28  1  0
  7 29  1  0
  8 30  1  0
  9 31  1  0
 10 32  1  0
 10 33  1  0
 11 34  1  0
 12 35  1  0
 12 36  1  0
 13 37  1  0
 14 38  1  0
 18 39  1  0
 19 40  1  0
 20 41  1  0
 22 42  1  0
 23 43  1  0
 24 44  1  0
M  END
>  <Energy>  (803) 
259.39031917094911

>  <compound_id>  (803) 
25250

>  <target_id>  (803) 
1

>  <reference_id>  (803) 
116

>  <inspiration_ids>  (803) 
[93, 116]

>  <energy_score>  (803) 
177.61729010632553

>  <distance_score>  (803) 
8.227664206488358

>  <path>  (803) 
/opt/xchem-fragalysis-2/maxwin/BulkDock/SCRATCH/511015/C25250-P116/C25250-P116.minimised.mol

>  <scratch_subdir>  (803) 
/opt/xchem-fragalysis-2/maxwin/BulkDock/SCRATCH/511015/C25250-P116

>  <fragmenstein_runtime>  (803) 
37.254729986190796

>  <fragmenstein_outcome>  (803) 
too moved

>  <fragmenstein_mode>  (803) 
expansion

>  <fragmenstein_error>  (803) 


$$$$
C25251-P93
     RDKit          3D

 40 42  0  0  0  0  0  0  0  0999 V2000
    7.5936   -9.6825   24.6884 C   0  0  0  0  0  0  0  0  0  0  0  0
    6.9404   -8.2328   24.9395 C   0  0  0  0  0  0  0  0  0  0  0  0
    7.3564   -8.2560   26.5561 C   0  0  0  0  0  0  0  0  0  0  0  0
    6.7734   -9.2275   27.5655 C   0  0  0  0  0  0  0  0  0  0  0  0
    6.7519   -9.0497   28.9357 C   0  0  0  0  0  0  0  0  0  0  0  0
    6.3610  -10.1812   29.5881 N   0  0  0  0  0  0  0  0  0  0  0  0
    6.1963  -11.0813   28.6567 C   0  0  0  0  0  0  0  0  0  0  0  0
    6.4361  -10.5564   27.4254 N   0  0  0  0  0  0  0  0  0  0  0  0
    8.0011   -7.0814   23.9953 C   0  0  0  0  0  0  0  0  0  0  0  0
    9.1745   -7.1967   24.3965 O   0  0  0  0  0  0  0  0  0  0  0  0
    7.3284   -6.0840   22.5948 N   0  0  0  0  0  0  0  0  0  0  0  0
    8.2355   -4.9906   21.1815 C   0  0  0  0  0  0  0  0  0  0  0  0
    9.0491   -4.8818   19.9456 C   0  0  0  0  0  0  0  0  0  0  0  0
   10.4571   -5.4408   18.7402 C   0  0  0  0  0  0  0  0  0  0  0  0
   11.9848   -5.2683   19.3908 C   0  0  0  0  0  0  0  0  0  0  0  0
   13.1399   -4.5883   19.1379 N   0  0  0  0  0  0  0  0  0  0  0  0
   13.5900   -4.0436   20.3378 C   0  0  0  0  0  0  0  0  0  0  0  0
   14.7271   -3.1306   20.3794 C   0  0  0  0  0  0  0  0  0  0  0  0
   14.5072   -2.0212   21.2718 N   0  0  0  0  0  0  0  0  0  0  0  0
   15.6646   -3.3990   19.6870 O   0  0  0  0  0  0  0  0  0  0  0  0
   12.7089   -4.4648   21.3323 C   0  0  0  0  0  0  0  0  0  0  0  0
   11.7318   -5.2733   20.7126 C   0  0  0  0  0  0  0  0  0  0  0  0
   10.0683   -5.5575   20.6560 C   0  0  0  0  0  0  0  0  0  0  0  0
    7.8051  -10.2816   25.5680 H   0  0  0  0  0  0  0  0  0  0  0  0
    6.9951  -10.3614   24.0804 H   0  0  0  0  0  0  0  0  0  0  0  0
    8.6111   -9.5916   24.3193 H   0  0  0  0  0  0  0  0  0  0  0  0
    5.8756   -8.2020   24.7676 H   0  0  0  0  0  0  0  0  0  0  0  0
    8.4503   -8.3912   26.5980 H   0  0  0  0  0  0  0  0  0  0  0  0
    7.2385   -7.2794   27.0308 H   0  0  0  0  0  0  0  0  0  0  0  0
    7.0461   -8.1653   29.4895 H   0  0  0  0  0  0  0  0  0  0  0  0
    5.9435  -12.1214   28.8111 H   0  0  0  0  0  0  0  0  0  0  0  0
    6.4698  -11.1276   26.5957 H   0  0  0  0  0  0  0  0  0  0  0  0
    6.3625   -6.2706   22.4842 H   0  0  0  0  0  0  0  0  0  0  0  0
    8.4896   -4.0844   19.6351 H   0  0  0  0  0  0  0  0  0  0  0  0
    9.8592   -6.3124   18.8506 H   0  0  0  0  0  0  0  0  0  0  0  0
   13.4811   -4.3049   18.2284 H   0  0  0  0  0  0  0  0  0  0  0  0
   13.5202   -2.0542   21.6205 H   0  0  0  0  0  0  0  0  0  0  0  0
   13.6185   -2.1791   21.7992 H   0  0  0  0  0  0  0  0  0  0  0  0
   12.7023   -4.1481   22.3675 H   0  0  0  0  0  0  0  0  0  0  0  0
   10.3853   -6.6444   20.7625 H   0  0  0  0  0  0  0  0  0  0  0  0
  1  2  1  0
  2  3  1  0
  3  4  1  0
  4  5  2  0
  5  6  1  0
  6  7  2  0
  7  8  1  0
  2  9  1  0
  9 10  2  0
  9 11  1  0
 11 12  1  0
 12 13  2  0
 13 14  1  0
 14 15  2  0
 15 16  1  0
 16 17  1  0
 17 18  1  0
 18 19  1  0
 18 20  2  0
 17 21  2  0
 21 22  1  0
 22 23  2  0
  8  4  1  0
 23 12  1  0
 22 15  1  0
  1 24  1  0
  1 25  1  0
  1 26  1  0
  2 27  1  0
  3 28  1  0
  3 29  1  0
  5 30  1  0
  7 31  1  0
  8 32  1  0
 11 33  1  0
 13 34  1  0
 14 35  1  0
 16 36  1  0
 19 37  1  0
 19 38  1  0
 21 39  1  0
 23 40  1  0
M  END
>  <Energy>  (804) 
1032.3554706253417

>  <compound_id>  (804) 
25251

>  <target_id>  (804) 
1

>  <reference_id>  (804) 
93

>  <inspiration_ids>  (804) 
[93, 116]

>  <energy_score>  (804) 
1026.0208358118039

>  <distance_score>  (804) 
7.17757628507822

>  <path>  (804) 
/opt/xchem-fragalysis-2/maxwin/BulkDock/SCRATCH/511015/C25251-P93/C25251-P93.minimised.mol

>  <scratch_subdir>  (804) 
/opt/xchem-fragalysis-2/maxwin/BulkDock/SCRATCH/511015/C25251-P93

>  <fragmenstein_runtime>  (804) 
17.276599884033203

>  <fragmenstein_outcome>  (804) 
too moved

>  <fragmenstein_mode>  (804) 
expansion

>  <fragmenstein_error>  (804) 


$$$$
C25251-P116
     RDKit          3D

 40 42  0  0  0  0  0  0  0  0999 V2000
   10.0101  -10.0386   26.7973 C   0  0  0  0  0  0  0  0  0  0  0  0
    9.1990   -8.7902   26.4374 C   0  0  0  0  0  0  0  0  0  0  0  0
    8.2519   -8.3994   27.6157 C   0  0  0  0  0  0  0  0  0  0  0  0
    7.0553   -9.2597   27.8907 C   0  0  0  0  0  0  0  0  0  0  0  0
    5.7125   -8.9816   27.7407 C   0  0  0  0  0  0  0  0  0  0  0  0
    4.9381   -9.9484   28.3252 N   0  0  0  0  0  0  0  0  0  0  0  0
    5.7845  -10.8376   28.7874 C   0  0  0  0  0  0  0  0  0  0  0  0
    7.0761  -10.4699   28.5420 N   0  0  0  0  0  0  0  0  0  0  0  0
   10.1612   -7.5840   26.0756 C   0  0  0  0  0  0  0  0  0  0  0  0
   10.1160   -6.5927   26.7499 O   0  0  0  0  0  0  0  0  0  0  0  0
   10.9573   -7.8934   24.8901 N   0  0  0  0  0  0  0  0  0  0  0  0
   11.8404   -7.0894   24.1295 C   0  0  0  0  0  0  0  0  0  0  0  0
   12.5236   -7.6745   23.0582 C   0  0  0  0  0  0  0  0  0  0  0  0
   13.3507   -6.9218   22.2050 C   0  0  0  0  0  0  0  0  0  0  0  0
   13.4040   -5.5391   22.3901 C   0  0  0  0  0  0  0  0  0  0  0  0
   14.0734   -4.5637   21.6894 N   0  0  0  0  0  0  0  0  0  0  0  0
   13.8429   -3.3128   22.2334 C   0  0  0  0  0  0  0  0  0  0  0  0
   14.4861   -2.1205   21.6737 C   0  0  0  0  0  0  0  0  0  0  0  0
   13.7749   -0.9053   21.9712 N   0  0  0  0  0  0  0  0  0  0  0  0
   15.5036   -2.2991   21.0704 O   0  0  0  0  0  0  0  0  0  0  0  0
   13.0238   -3.5209   23.3318 C   0  0  0  0  0  0  0  0  0  0  0  0
   12.7451   -4.9142   23.4406 C   0  0  0  0  0  0  0  0  0  0  0  0
   11.9984   -5.7084   24.3506 C   0  0  0  0  0  0  0  0  0  0  0  0
    9.3571  -10.8928   26.9964 H   0  0  0  0  0  0  0  0  0  0  0  0
   10.6859  -10.3434   25.9933 H   0  0  0  0  0  0  0  0  0  0  0  0
   10.6256   -9.8610   27.6860 H   0  0  0  0  0  0  0  0  0  0  0  0
    8.5906   -8.9923   25.5463 H   0  0  0  0  0  0  0  0  0  0  0  0
    8.8420   -8.3192   28.5391 H   0  0  0  0  0  0  0  0  0  0  0  0
    7.8722   -7.3852   27.4275 H   0  0  0  0  0  0  0  0  0  0  0  0
    5.2766   -8.1024   27.2844 H   0  0  0  0  0  0  0  0  0  0  0  0
    5.5281  -11.7483   29.3091 H   0  0  0  0  0  0  0  0  0  0  0  0
    7.8947  -10.9735   28.8530 H   0  0  0  0  0  0  0  0  0  0  0  0
   10.8009   -8.8570   24.6288 H   0  0  0  0  0  0  0  0  0  0  0  0
   12.4503   -8.7449   22.8816 H   0  0  0  0  0  0  0  0  0  0  0  0
   13.9391   -7.4027   21.4331 H   0  0  0  0  0  0  0  0  0  0  0  0
   14.6679   -4.7207   20.8847 H   0  0  0  0  0  0  0  0  0  0  0  0
   12.9864   -1.1229   22.6193 H   0  0  0  0  0  0  0  0  0  0  0  0
   12.8601   -1.1466   22.4179 H   0  0  0  0  0  0  0  0  0  0  0  0
   12.6736   -2.7735   24.0322 H   0  0  0  0  0  0  0  0  0  0  0  0
   11.4868   -5.2173   25.1746 H   0  0  0  0  0  0  0  0  0  0  0  0
  1  2  1  0
  2  3  1  0
  3  4  1  0
  4  5  2  0
  5  6  1  0
  6  7  2  0
  7  8  1  0
  2  9  1  0
  9 10  2  0
  9 11  1  0
 11 12  1  0
 12 13  2  0
 13 14  1  0
 14 15  2  0
 15 16  1  0
 16 17  1  0
 17 18  1  0
 18 19  1  0
 18 20  2  0
 17 21  2  0
 21 22  1  0
 22 23  2  0
  8  4  1  0
 23 12  1  0
 22 15  1  0
  1 24  1  0
  1 25  1  0
  1 26  1  0
  2 27  1  0
  3 28  1  0
  3 29  1  0
  5 30  1  0
  7 31  1  0
  8 32  1  0
 11 33  1  0
 13 34  1  0
 14 35  1  0
 16 36  1  0
 19 37  1  0
 19 38  1  0
 21 39  1  0
 23 40  1  0
M  END
>  <Energy>  (805) 
143.32477731283271

>  <compound_id>  (805) 
25251

>  <target_id>  (805) 
1

>  <reference_id>  (805) 
116

>  <inspiration_ids>  (805) 
[93, 116]

>  <energy_score>  (805) 
136.99014249929922

>  <distance_score>  (805) 
8.31335198975055

>  <path>  (805) 
/opt/xchem-fragalysis-2/maxwin/BulkDock/SCRATCH/511015/C25251-P116/C25251-P116.minimised.mol

>  <scratch_subdir>  (805) 
/opt/xchem-fragalysis-2/maxwin/BulkDock/SCRATCH/511015/C25251-P116

>  <fragmenstein_runtime>  (805) 
13.28410267829895

>  <fragmenstein_outcome>  (805) 
too moved

>  <fragmenstein_mode>  (805) 
expansion

>  <fragmenstein_error>  (805) 


$$$$
C25253-P93
     RDKit          3D

 36 39  0  0  0  0  0  0  0  0999 V2000
   11.3866   -9.1346   23.4643 O   0  0  0  0  0  0  0  0  0  0  0  0
   11.4051   -8.0882   24.0171 C   0  0  0  0  0  0  0  0  0  0  0  0
   12.2245   -6.7317   23.6646 N   0  0  0  0  0  0  0  0  0  0  0  0
   13.1599   -6.3819   22.4119 C   0  0  0  0  0  0  0  0  0  0  0  0
   13.4995   -4.8937   21.8060 C   0  0  0  0  0  0  0  0  0  0  0  0
   13.9328   -3.8243   22.5628 C   0  0  0  0  0  0  0  0  0  0  0  0
   14.4441   -2.8158   21.7757 N   0  0  0  0  0  0  0  0  0  0  0  0
   14.3195   -3.1064   20.4489 C   0  0  0  0  0  0  0  0  0  0  0  0
   14.6739   -2.3488   19.3048 C   0  0  0  0  0  0  0  0  0  0  0  0
   14.3715   -2.8375   18.0352 C   0  0  0  0  0  0  0  0  0  0  0  0
   13.7611   -4.0609   17.9379 C   0  0  0  0  0  0  0  0  0  0  0  0
   13.4519   -4.7723   19.1105 C   0  0  0  0  0  0  0  0  0  0  0  0
   13.7045   -4.3538   20.4170 C   0  0  0  0  0  0  0  0  0  0  0  0
   10.3186   -8.0842   25.2480 C   0  0  0  0  0  0  0  0  0  0  0  0
   10.2517   -7.2051   26.3039 C   0  0  0  0  0  0  0  0  0  0  0  0
    8.9868   -7.6223   27.4309 S   0  0  0  0  0  0  0  0  0  0  0  0
    8.4112   -8.9958   26.4985 C   0  0  0  0  0  0  0  0  0  0  0  0
    7.2179   -9.7766   26.9885 C   0  0  0  0  0  0  0  0  0  0  0  0
    6.0932   -9.3401   27.6845 C   0  0  0  0  0  0  0  0  0  0  0  0
    5.2581  -10.3458   28.0983 N   0  0  0  0  0  0  0  0  0  0  0  0
    5.9304  -11.4348   27.7897 C   0  0  0  0  0  0  0  0  0  0  0  0
    7.0111  -11.1491   26.9836 N   0  0  0  0  0  0  0  0  0  0  0  0
    9.1933   -9.1340   25.4017 N   0  0  0  0  0  0  0  0  0  0  0  0
   11.9476   -5.9908   24.2987 H   0  0  0  0  0  0  0  0  0  0  0  0
   14.1312   -6.8073   22.6937 H   0  0  0  0  0  0  0  0  0  0  0  0
   12.7758   -6.9911   21.5889 H   0  0  0  0  0  0  0  0  0  0  0  0
   13.9862   -3.7115   23.6370 H   0  0  0  0  0  0  0  0  0  0  0  0
   14.7856   -1.9364   22.1355 H   0  0  0  0  0  0  0  0  0  0  0  0
   15.1524   -1.3797   19.4179 H   0  0  0  0  0  0  0  0  0  0  0  0
   14.6178   -2.2623   17.1485 H   0  0  0  0  0  0  0  0  0  0  0  0
   13.4867   -4.4690   16.9685 H   0  0  0  0  0  0  0  0  0  0  0  0
   12.9178   -5.6807   19.0650 H   0  0  0  0  0  0  0  0  0  0  0  0
   10.8799   -6.3520   26.5161 H   0  0  0  0  0  0  0  0  0  0  0  0
    5.9069   -8.3140   27.9264 H   0  0  0  0  0  0  0  0  0  0  0  0
    5.6825  -12.4521   28.0662 H   0  0  0  0  0  0  0  0  0  0  0  0
    7.6510  -11.8273   26.5931 H   0  0  0  0  0  0  0  0  0  0  0  0
  1  2  2  0
  2  3  1  0
  3  4  1  0
  4  5  1  0
  5  6  2  0
  6  7  1  0
  7  8  1  0
  8  9  2  0
  9 10  1  0
 10 11  2  0
 11 12  1  0
 12 13  2  0
  2 14  1  0
 14 15  2  0
 15 16  1  0
 16 17  1  0
 17 18  1  0
 18 19  2  0
 19 20  1  0
 20 21  2  0
 21 22  1  0
 17 23  2  0
 13  5  1  0
 23 14  1  0
 13  8  1  0
 22 18  1  0
  3 24  1  0
  4 25  1  0
  4 26  1  0
  6 27  1  0
  7 28  1  0
  9 29  1  0
 10 30  1  0
 11 31  1  0
 12 32  1  0
 15 33  1  0
 19 34  1  0
 21 35  1  0
 22 36  1  0
M  END
>  <Energy>  (806) 
108.52492709892815

>  <compound_id>  (806) 
25253

>  <target_id>  (806) 
1

>  <reference_id>  (806) 
93

>  <inspiration_ids>  (806) 
[93, 116]

>  <energy_score>  (806) 
17.748911850812874

>  <distance_score>  (806) 
8.21252695696829

>  <path>  (806) 
/opt/xchem-fragalysis-2/maxwin/BulkDock/SCRATCH/511015/C25253-P93/C25253-P93.minimised.mol

>  <scratch_subdir>  (806) 
/opt/xchem-fragalysis-2/maxwin/BulkDock/SCRATCH/511015/C25253-P93

>  <fragmenstein_runtime>  (806) 
11.334952354431152

>  <fragmenstein_outcome>  (806) 
too moved

>  <fragmenstein_mode>  (806) 
expansion

>  <fragmenstein_error>  (806) 


$$$$
C25253-P116
     RDKit          3D

 36 39  0  0  0  0  0  0  0  0999 V2000
   11.5899   -9.0815   23.5214 O   0  0  0  0  0  0  0  0  0  0  0  0
   11.5543   -7.9647   23.9429 C   0  0  0  0  0  0  0  0  0  0  0  0
   12.2630   -6.7826   23.5281 N   0  0  0  0  0  0  0  0  0  0  0  0
   13.3059   -6.5980   22.5380 C   0  0  0  0  0  0  0  0  0  0  0  0
   13.4142   -5.1781   22.0552 C   0  0  0  0  0  0  0  0  0  0  0  0
   12.8871   -4.0409   22.6389 C   0  0  0  0  0  0  0  0  0  0  0  0
   13.3084   -2.9447   21.9369 N   0  0  0  0  0  0  0  0  0  0  0  0
   14.0529   -3.3261   20.8499 C   0  0  0  0  0  0  0  0  0  0  0  0
   14.6461   -2.5466   19.8466 C   0  0  0  0  0  0  0  0  0  0  0  0
   15.3421   -3.2026   18.8328 C   0  0  0  0  0  0  0  0  0  0  0  0
   15.4707   -4.5850   18.8515 C   0  0  0  0  0  0  0  0  0  0  0  0
   14.8867   -5.3486   19.8728 C   0  0  0  0  0  0  0  0  0  0  0  0
   14.1423   -4.7180   20.8911 C   0  0  0  0  0  0  0  0  0  0  0  0
   10.5480   -7.6965   25.0418 C   0  0  0  0  0  0  0  0  0  0  0  0
   10.5742   -6.6584   25.9586 C   0  0  0  0  0  0  0  0  0  0  0  0
    9.1799   -6.6840   26.9593 S   0  0  0  0  0  0  0  0  0  0  0  0
    8.6458   -8.1329   26.1979 C   0  0  0  0  0  0  0  0  0  0  0  0
    7.5013   -8.8370   26.6954 C   0  0  0  0  0  0  0  0  0  0  0  0
    7.3182  -10.1682   27.0090 C   0  0  0  0  0  0  0  0  0  0  0  0
    6.1318  -10.3596   27.6762 N   0  0  0  0  0  0  0  0  0  0  0  0
    5.5622   -9.1799   27.6936 C   0  0  0  0  0  0  0  0  0  0  0  0
    6.3109   -8.2443   27.0454 N   0  0  0  0  0  0  0  0  0  0  0  0
    9.4115   -8.5340   25.2004 N   0  0  0  0  0  0  0  0  0  0  0  0
   12.0487   -6.0319   24.1621 H   0  0  0  0  0  0  0  0  0  0  0  0
   13.1012   -7.2850   21.7155 H   0  0  0  0  0  0  0  0  0  0  0  0
   14.2488   -6.9025   23.0042 H   0  0  0  0  0  0  0  0  0  0  0  0
   12.2660   -3.8954   23.5111 H   0  0  0  0  0  0  0  0  0  0  0  0
   13.0458   -1.9924   22.1645 H   0  0  0  0  0  0  0  0  0  0  0  0
   14.5737   -1.4654   19.8568 H   0  0  0  0  0  0  0  0  0  0  0  0
   15.8024   -2.6291   18.0329 H   0  0  0  0  0  0  0  0  0  0  0  0
   16.0197   -5.0913   18.0624 H   0  0  0  0  0  0  0  0  0  0  0  0
   14.9947   -6.4293   19.8502 H   0  0  0  0  0  0  0  0  0  0  0  0
   11.3112   -5.8825   26.1025 H   0  0  0  0  0  0  0  0  0  0  0  0
    8.0120  -10.9847   26.8527 H   0  0  0  0  0  0  0  0  0  0  0  0
    4.6059   -8.9530   28.1299 H   0  0  0  0  0  0  0  0  0  0  0  0
    6.0489   -7.2801   26.8833 H   0  0  0  0  0  0  0  0  0  0  0  0
  1  2  2  0
  2  3  1  0
  3  4  1  0
  4  5  1  0
  5  6  2  0
  6  7  1  0
  7  8  1  0
  8  9  2  0
  9 10  1  0
 10 11  2  0
 11 12  1  0
 12 13  2  0
  2 14  1  0
 14 15  2  0
 15 16  1  0
 16 17  1  0
 17 18  1  0
 18 19  2  0
 19 20  1  0
 20 21  2  0
 21 22  1  0
 17 23  2  0
 13  5  1  0
 23 14  1  0
 13  8  1  0
 22 18  1  0
  3 24  1  0
  4 25  1  0
  4 26  1  0
  6 27  1  0
  7 28  1  0
  9 29  1  0
 10 30  1  0
 11 31  1  0
 12 32  1  0
 15 33  1  0
 19 34  1  0
 21 35  1  0
 22 36  1  0
M  END
>  <Energy>  (807) 
30.867545165320941

>  <compound_id>  (807) 
25253

>  <target_id>  (807) 
1

>  <reference_id>  (807) 
116

>  <inspiration_ids>  (807) 
[93, 116]

>  <energy_score>  (807) 
-51.92362498104285

>  <distance_score>  (807) 
8.543386272882508

>  <path>  (807) 
/opt/xchem-fragalysis-2/maxwin/BulkDock/SCRATCH/511015/C25253-P116/C25253-P116.minimised.mol

>  <scratch_subdir>  (807) 
/opt/xchem-fragalysis-2/maxwin/BulkDock/SCRATCH/511015/C25253-P116

>  <fragmenstein_runtime>  (807) 
16.737221717834473

>  <fragmenstein_outcome>  (807) 
too moved

>  <fragmenstein_mode>  (807) 
expansion

>  <fragmenstein_error>  (807) 


$$$$
C25254-P93
     RDKit          3D

 41 43  0  0  0  0  0  0  0  0999 V2000
   18.1338  -10.4112   19.8182 C   0  0  0  0  0  0  0  0  0  0  0  0
   16.6812  -10.4837   19.9975 N   0  0  0  0  0  0  0  0  0  0  0  0
   16.1121  -11.3741   18.9767 C   0  0  0  0  0  0  0  0  0  0  0  0
   16.0443   -9.1532   19.8876 C   0  0  0  0  0  0  0  0  0  0  0  0
   16.4522   -8.1654   20.9830 C   0  0  0  0  0  0  0  0  0  0  0  0
   15.6634   -6.9371   20.9693 N   0  0  0  0  0  0  0  0  0  0  0  0
   15.9945   -5.8185   20.2412 C   0  0  0  0  0  0  0  0  0  0  0  0
   15.2345   -4.7713   20.7087 C   0  0  0  0  0  0  0  0  0  0  0  0
   14.4055   -5.2766   21.7482 C   0  0  0  0  0  0  0  0  0  0  0  0
   13.5087   -4.6882   22.6551 C   0  0  0  0  0  0  0  0  0  0  0  0
   12.8213   -5.4966   23.5829 C   0  0  0  0  0  0  0  0  0  0  0  0
   12.9230   -6.8930   23.5614 C   0  0  0  0  0  0  0  0  0  0  0  0
   12.0196   -7.7107   24.2871 N   0  0  0  0  0  0  0  0  0  0  0  0
   11.0756   -7.3839   25.3358 C   0  0  0  0  0  0  0  0  0  0  0  0
   10.8750   -6.3545   25.9118 O   0  0  0  0  0  0  0  0  0  0  0  0
   10.1443   -8.4762   25.6783 C   0  0  0  0  0  0  0  0  0  0  0  0
    9.8925   -9.7562   25.2161 C   0  0  0  0  0  0  0  0  0  0  0  0
    8.7475  -10.2886   25.7705 N   0  0  0  0  0  0  0  0  0  0  0  0
    8.3184   -9.3891   26.6197 C   0  0  0  0  0  0  0  0  0  0  0  0
    9.1404   -8.3016   26.6280 N   0  0  0  0  0  0  0  0  0  0  0  0
   13.8397   -7.4866   22.6775 C   0  0  0  0  0  0  0  0  0  0  0  0
   14.6074   -6.6576   21.8200 C   0  0  0  0  0  0  0  0  0  0  0  0
   18.4110   -9.9513   18.8627 H   0  0  0  0  0  0  0  0  0  0  0  0
   18.5762  -11.4133   19.8577 H   0  0  0  0  0  0  0  0  0  0  0  0
   18.6023   -9.8431   20.6279 H   0  0  0  0  0  0  0  0  0  0  0  0
   16.5351  -12.3809   19.0665 H   0  0  0  0  0  0  0  0  0  0  0  0
   15.0300  -11.4780   19.1157 H   0  0  0  0  0  0  0  0  0  0  0  0
   16.2969  -11.0108   17.9591 H   0  0  0  0  0  0  0  0  0  0  0  0
   16.2540   -8.7126   18.9060 H   0  0  0  0  0  0  0  0  0  0  0  0
   14.9605   -9.2939   19.9601 H   0  0  0  0  0  0  0  0  0  0  0  0
   17.5003   -7.8630   20.8747 H   0  0  0  0  0  0  0  0  0  0  0  0
   16.3478   -8.6164   21.9764 H   0  0  0  0  0  0  0  0  0  0  0  0
   16.7812   -5.8460   19.4984 H   0  0  0  0  0  0  0  0  0  0  0  0
   15.2997   -3.7414   20.3827 H   0  0  0  0  0  0  0  0  0  0  0  0
   13.3457   -3.6130   22.6547 H   0  0  0  0  0  0  0  0  0  0  0  0
   12.1306   -4.9971   24.2613 H   0  0  0  0  0  0  0  0  0  0  0  0
   11.9696   -8.7006   24.0949 H   0  0  0  0  0  0  0  0  0  0  0  0
   10.4394  -10.3236   24.4735 H   0  0  0  0  0  0  0  0  0  0  0  0
    7.4437   -9.4729   27.2503 H   0  0  0  0  0  0  0  0  0  0  0  0
    9.0381   -7.4603   27.1832 H   0  0  0  0  0  0  0  0  0  0  0  0
   13.9788   -8.5629   22.6607 H   0  0  0  0  0  0  0  0  0  0  0  0
  1  2  1  0
  2  3  1  0
  2  4  1  0
  4  5  1  0
  5  6  1  0
  6  7  1  0
  7  8  2  0
  8  9  1  0
  9 10  2  0
 10 11  1  0
 11 12  2  0
 12 13  1  0
 13 14  1  0
 14 15  2  0
 14 16  1  0
 16 17  2  0
 17 18  1  0
 18 19  2  0
 19 20  1  0
 12 21  1  0
 21 22  2  0
 22  6  1  0
 22  9  1  0
 20 16  1  0
  1 23  1  0
  1 24  1  0
  1 25  1  0
  3 26  1  0
  3 27  1  0
  3 28  1  0
  4 29  1  0
  4 30  1  0
  5 31  1  0
  5 32  1  0
  7 33  1  0
  8 34  1  0
 10 35  1  0
 11 36  1  0
 13 37  1  0
 17 38  1  0
 19 39  1  0
 20 40  1  0
 21 41  1  0
M  END
>  <Energy>  (808) 
14.319396095862933

>  <compound_id>  (808) 
25254

>  <target_id>  (808) 
1

>  <reference_id>  (808) 
93

>  <inspiration_ids>  (808) 
[93, 116]

>  <energy_score>  (808) 
-41.172939496244055

>  <distance_score>  (808) 
9.18126657317425

>  <path>  (808) 
/opt/xchem-fragalysis-2/maxwin/BulkDock/SCRATCH/511015/C25254-P93/C25254-P93.minimised.mol

>  <scratch_subdir>  (808) 
/opt/xchem-fragalysis-2/maxwin/BulkDock/SCRATCH/511015/C25254-P93

>  <fragmenstein_runtime>  (808) 
20.817586660385132

>  <fragmenstein_outcome>  (808) 
too moved

>  <fragmenstein_mode>  (808) 
expansion

>  <fragmenstein_error>  (808) 


$$$$
C25254-P116
     RDKit          3D

 41 43  0  0  0  0  0  0  0  0999 V2000
   14.1434   -7.8202   24.2840 C   0  0  0  0  0  0  0  0  0  0  0  0
   12.7149   -7.8367   23.9515 N   0  0  0  0  0  0  0  0  0  0  0  0
   11.9360   -8.1495   25.1515 C   0  0  0  0  0  0  0  0  0  0  0  0
   12.4643   -8.7827   22.8430 C   0  0  0  0  0  0  0  0  0  0  0  0
   11.0366   -8.7286   22.1718 C   0  0  0  0  0  0  0  0  0  0  0  0
   10.5878   -7.6409   21.2709 N   0  0  0  0  0  0  0  0  0  0  0  0
   11.5220   -6.5952   21.2977 C   0  0  0  0  0  0  0  0  0  0  0  0
   10.9944   -5.4237   20.9444 C   0  0  0  0  0  0  0  0  0  0  0  0
    9.7160   -5.6061   20.1905 C   0  0  0  0  0  0  0  0  0  0  0  0
    8.1623   -4.5302   20.2116 C   0  0  0  0  0  0  0  0  0  0  0  0
    6.6700   -5.5081   20.3068 C   0  0  0  0  0  0  0  0  0  0  0  0
    6.3301   -7.0730   21.3737 C   0  0  0  0  0  0  0  0  0  0  0  0
    4.8744   -8.3377   22.0933 N   0  0  0  0  0  0  0  0  0  0  0  0
    4.9174  -10.4380   22.2783 C   0  0  0  0  0  0  0  0  0  0  0  0
    5.9402  -11.0761   22.0584 O   0  0  0  0  0  0  0  0  0  0  0  0
    3.4685  -11.6530   22.5286 C   0  0  0  0  0  0  0  0  0  0  0  0
    2.9594  -12.6780   21.5762 C   0  0  0  0  0  0  0  0  0  0  0  0
    1.7253  -13.2084   21.8064 N   0  0  0  0  0  0  0  0  0  0  0  0
    1.5514  -12.8696   23.0397 C   0  0  0  0  0  0  0  0  0  0  0  0
    2.7670  -12.4612   23.5628 N   0  0  0  0  0  0  0  0  0  0  0  0
    7.3067   -7.5063   20.0033 C   0  0  0  0  0  0  0  0  0  0  0  0
    9.2606   -7.3884   20.1338 C   0  0  0  0  0  0  0  0  0  0  0  0
   14.3489   -7.0835   25.0687 H   0  0  0  0  0  0  0  0  0  0  0  0
   14.7379   -7.5200   23.4138 H   0  0  0  0  0  0  0  0  0  0  0  0
   14.4983   -8.7993   24.6255 H   0  0  0  0  0  0  0  0  0  0  0  0
   10.8630   -8.0357   24.9717 H   0  0  0  0  0  0  0  0  0  0  0  0
   12.1780   -7.4496   25.9598 H   0  0  0  0  0  0  0  0  0  0  0  0
   12.1244   -9.1667   25.5129 H   0  0  0  0  0  0  0  0  0  0  0  0
   12.6089   -9.8051   23.2219 H   0  0  0  0  0  0  0  0  0  0  0  0
   13.2186   -8.6587   22.0543 H   0  0  0  0  0  0  0  0  0  0  0  0
   11.0843   -9.6374   21.6134 H   0  0  0  0  0  0  0  0  0  0  0  0
   10.3765   -8.7364   23.0246 H   0  0  0  0  0  0  0  0  0  0  0  0
   12.4796   -6.6972   21.7812 H   0  0  0  0  0  0  0  0  0  0  0  0
   11.4509   -4.4889   21.2559 H   0  0  0  0  0  0  0  0  0  0  0  0
    7.8185   -3.7826   20.9248 H   0  0  0  0  0  0  0  0  0  0  0  0
    6.0561   -5.1115   19.4433 H   0  0  0  0  0  0  0  0  0  0  0  0
    4.0017   -7.9970   22.3946 H   0  0  0  0  0  0  0  0  0  0  0  0
    3.4735  -13.0051   20.6661 H   0  0  0  0  0  0  0  0  0  0  0  0
    0.6589  -12.9592   23.6351 H   0  0  0  0  0  0  0  0  0  0  0  0
    2.9140  -12.3857   24.5558 H   0  0  0  0  0  0  0  0  0  0  0  0
    6.9999   -7.0531   19.0362 H   0  0  0  0  0  0  0  0  0  0  0  0
  1  2  1  0
  2  3  1  0
  2  4  1  0
  4  5  1  0
  5  6  1  0
  6  7  1  0
  7  8  2  0
  8  9  1  0
  9 10  2  0
 10 11  1  0
 11 12  2  0
 12 13  1  0
 13 14  1  0
 14 15  2  0
 14 16  1  0
 16 17  2  0
 17 18  1  0
 18 19  2  0
 19 20  1  0
 12 21  1  0
 21 22  2  0
 22  6  1  0
 22  9  1  0
 20 16  1  0
  1 23  1  0
  1 24  1  0
  1 25  1  0
  3 26  1  0
  3 27  1  0
  3 28  1  0
  4 29  1  0
  4 30  1  0
  5 31  1  0
  5 32  1  0
  7 33  1  0
  8 34  1  0
 10 35  1  0
 11 36  1  0
 13 37  1  0
 17 38  1  0
 19 39  1  0
 20 40  1  0
 21 41  1  0
M  END
>  <Energy>  (809) 
1131.3456214594071

>  <compound_id>  (809) 
25254

>  <target_id>  (809) 
1

>  <reference_id>  (809) 
116

>  <inspiration_ids>  (809) 
[93, 116]

>  <energy_score>  (809) 
1075.8532858672997

>  <distance_score>  (809) 
7.707822964739394

>  <path>  (809) 
/opt/xchem-fragalysis-2/maxwin/BulkDock/SCRATCH/511015/C25254-P116/C25254-P116.minimised.mol

>  <scratch_subdir>  (809) 
/opt/xchem-fragalysis-2/maxwin/BulkDock/SCRATCH/511015/C25254-P116

>  <fragmenstein_runtime>  (809) 
10.071465015411377

>  <fragmenstein_outcome>  (809) 
too moved

>  <fragmenstein_mode>  (809) 
expansion

>  <fragmenstein_error>  (809) 


$$$$
C25255-P93
     RDKit          3D

 33 35  0  0  0  0  0  0  0  0999 V2000
    2.5649  -10.4035   21.8594 O   0  0  0  0  0  0  0  0  0  0  0  0
    3.4517  -10.6901   22.6309 C   0  0  0  0  0  0  0  0  0  0  0  0
    4.7386   -9.5312   23.3250 N   0  0  0  0  0  0  0  0  0  0  0  0
    5.2458   -7.4342   22.9274 C   0  0  0  0  0  0  0  0  0  0  0  0
    7.0439   -6.2241   22.2844 C   0  0  0  0  0  0  0  0  0  0  0  0
    8.4192   -5.0268   20.9703 C   0  0  0  0  0  0  0  0  0  0  0  0
   10.2342   -5.7028   20.6172 C   0  0  0  0  0  0  0  0  0  0  0  0
   11.6004   -6.7717   20.8644 N   0  0  0  0  0  0  0  0  0  0  0  0
   11.9399   -5.7932   19.9880 C   0  0  0  0  0  0  0  0  0  0  0  0
   13.0548   -5.2589   19.1833 C   0  0  0  0  0  0  0  0  0  0  0  0
   13.9443   -4.4948   19.8412 C   0  0  0  0  0  0  0  0  0  0  0  0
   13.2901   -3.7940   20.7725 C   0  0  0  0  0  0  0  0  0  0  0  0
   14.3770   -2.9176   22.0601 Br  0  0  0  0  0  0  0  0  0  0  0  0
   11.8102   -3.9731   20.8351 C   0  0  0  0  0  0  0  0  0  0  0  0
   10.4325   -5.2359   20.3097 C   0  0  0  0  0  0  0  0  0  0  0  0
    3.4655  -12.2168   22.8655 C   0  0  0  0  0  0  0  0  0  0  0  0
    2.4313  -13.0993   22.5979 C   0  0  0  0  0  0  0  0  0  0  0  0
    2.8747  -14.3964   22.5544 N   0  0  0  0  0  0  0  0  0  0  0  0
    4.1556  -14.3273   22.8194 C   0  0  0  0  0  0  0  0  0  0  0  0
    4.5643  -13.0396   23.0036 N   0  0  0  0  0  0  0  0  0  0  0  0
    5.4055  -10.0460   23.8704 H   0  0  0  0  0  0  0  0  0  0  0  0
    5.8553   -7.3808   23.9019 H   0  0  0  0  0  0  0  0  0  0  0  0
    4.5580   -7.0120   23.6486 H   0  0  0  0  0  0  0  0  0  0  0  0
    7.6149   -6.5210   23.1896 H   0  0  0  0  0  0  0  0  0  0  0  0
    6.9332   -5.3165   22.9407 H   0  0  0  0  0  0  0  0  0  0  0  0
   11.1878   -5.1241   21.6917 H   0  0  0  0  0  0  0  0  0  0  0  0
   12.1714   -6.9761   21.6862 H   0  0  0  0  0  0  0  0  0  0  0  0
   12.8072   -4.8304   18.1966 H   0  0  0  0  0  0  0  0  0  0  0  0
   14.9348   -4.2456   19.4924 H   0  0  0  0  0  0  0  0  0  0  0  0
   11.4715   -3.5111   21.7696 H   0  0  0  0  0  0  0  0  0  0  0  0
    1.4058  -12.8453   22.3583 H   0  0  0  0  0  0  0  0  0  0  0  0
    4.8375  -15.1657   22.8654 H   0  0  0  0  0  0  0  0  0  0  0  0
    5.5237  -12.7445   23.1096 H   0  0  0  0  0  0  0  0  0  0  0  0
  1  2  2  0
  2  3  1  0
  3  4  1  0
  4  5  1  0
  5  6  1  0
  6  7  2  0
  7  8  1  0
  8  9  1  0
  9 10  2  0
 10 11  1  0
 11 12  2  0
 12 13  1  0
 12 14  1  0
 14 15  2  0
  2 16  1  0
 16 17  2  0
 17 18  1  0
 18 19  2  0
 19 20  1  0
 15  6  1  0
 20 16  1  0
 15  9  1  0
  3 21  1  0
  4 22  1  0
  4 23  1  0
  5 24  1  0
  5 25  1  0
  7 26  1  0
  8 27  1  0
 10 28  1  0
 11 29  1  0
 14 30  1  0
 17 31  1  0
 19 32  1  0
 20 33  1  0
M  END
>  <Energy>  (810) 
1812.5494919746159

>  <compound_id>  (810) 
25255

>  <target_id>  (810) 
1

>  <reference_id>  (810) 
93

>  <inspiration_ids>  (810) 
[93, 116]

>  <energy_score>  (810) 
1816.3204235719513

>  <distance_score>  (810) 
6.899938104698546

>  <path>  (810) 
/opt/xchem-fragalysis-2/maxwin/BulkDock/SCRATCH/511015/C25255-P93/C25255-P93.minimised.mol

>  <scratch_subdir>  (810) 
/opt/xchem-fragalysis-2/maxwin/BulkDock/SCRATCH/511015/C25255-P93

>  <fragmenstein_runtime>  (810) 
20.18258309364319

>  <fragmenstein_outcome>  (810) 
too moved

>  <fragmenstein_mode>  (810) 
expansion

>  <fragmenstein_error>  (810) 


$$$$
C25255-P116
     RDKit          3D

 33 35  0  0  0  0  0  0  0  0999 V2000
    9.6865   -7.7943   24.6586 O   0  0  0  0  0  0  0  0  0  0  0  0
    9.4891   -7.0614   25.5855 C   0  0  0  0  0  0  0  0  0  0  0  0
   10.1344   -5.8288   25.9626 N   0  0  0  0  0  0  0  0  0  0  0  0
   11.1757   -5.0242   25.2767 C   0  0  0  0  0  0  0  0  0  0  0  0
   12.3352   -5.7350   24.5429 C   0  0  0  0  0  0  0  0  0  0  0  0
   12.6317   -5.2958   23.1030 C   0  0  0  0  0  0  0  0  0  0  0  0
   12.3967   -6.0912   21.9930 C   0  0  0  0  0  0  0  0  0  0  0  0
   12.8404   -5.4463   20.8751 N   0  0  0  0  0  0  0  0  0  0  0  0
   13.4238   -4.2568   21.2057 C   0  0  0  0  0  0  0  0  0  0  0  0
   14.0603   -3.3356   20.3648 C   0  0  0  0  0  0  0  0  0  0  0  0
   14.5438   -2.1690   20.9472 C   0  0  0  0  0  0  0  0  0  0  0  0
   14.3830   -1.9567   22.3134 C   0  0  0  0  0  0  0  0  0  0  0  0
   15.0325   -0.3487   23.0772 Br  0  0  0  0  0  0  0  0  0  0  0  0
   13.7647   -2.9061   23.1462 C   0  0  0  0  0  0  0  0  0  0  0  0
   13.2696   -4.1001   22.5861 C   0  0  0  0  0  0  0  0  0  0  0  0
    8.3405   -7.3977   26.4468 C   0  0  0  0  0  0  0  0  0  0  0  0
    8.0054   -7.1168   27.7619 C   0  0  0  0  0  0  0  0  0  0  0  0
    6.7921   -7.6599   28.1235 N   0  0  0  0  0  0  0  0  0  0  0  0
    6.3599   -8.2667   27.0454 C   0  0  0  0  0  0  0  0  0  0  0  0
    7.2551   -8.1595   26.0182 N   0  0  0  0  0  0  0  0  0  0  0  0
    9.6519   -5.4345   26.7608 H   0  0  0  0  0  0  0  0  0  0  0  0
   11.6068   -4.3994   26.0685 H   0  0  0  0  0  0  0  0  0  0  0  0
   10.6506   -4.3330   24.6133 H   0  0  0  0  0  0  0  0  0  0  0  0
   13.2564   -5.5801   25.1204 H   0  0  0  0  0  0  0  0  0  0  0  0
   12.1677   -6.8186   24.5447 H   0  0  0  0  0  0  0  0  0  0  0  0
   11.9505   -7.0735   21.9172 H   0  0  0  0  0  0  0  0  0  0  0  0
   12.7806   -5.7791   19.9250 H   0  0  0  0  0  0  0  0  0  0  0  0
   14.1619   -3.5200   19.3001 H   0  0  0  0  0  0  0  0  0  0  0  0
   15.0402   -1.4284   20.3269 H   0  0  0  0  0  0  0  0  0  0  0  0
   13.6608   -2.7219   24.2103 H   0  0  0  0  0  0  0  0  0  0  0  0
    8.5835   -6.5545   28.4837 H   0  0  0  0  0  0  0  0  0  0  0  0
    5.4188   -8.7861   26.9472 H   0  0  0  0  0  0  0  0  0  0  0  0
    7.1233   -8.5250   25.0818 H   0  0  0  0  0  0  0  0  0  0  0  0
  1  2  2  0
  2  3  1  0
  3  4  1  0
  4  5  1  0
  5  6  1  0
  6  7  2  0
  7  8  1  0
  8  9  1  0
  9 10  2  0
 10 11  1  0
 11 12  2  0
 12 13  1  0
 12 14  1  0
 14 15  2  0
  2 16  1  0
 16 17  2  0
 17 18  1  0
 18 19  2  0
 19 20  1  0
 15  6  1  0
 20 16  1  0
 15  9  1  0
  3 21  1  0
  4 22  1  0
  4 23  1  0
  5 24  1  0
  5 25  1  0
  7 26  1  0
  8 27  1  0
 10 28  1  0
 11 29  1  0
 14 30  1  0
 17 31  1  0
 19 32  1  0
 20 33  1  0
M  END
>  <Energy>  (811) 
-5.3104100969278463

>  <compound_id>  (811) 
25255

>  <target_id>  (811) 
1

>  <reference_id>  (811) 
116

>  <inspiration_ids>  (811) 
[93, 116]

>  <energy_score>  (811) 
-1.539478499619804

>  <distance_score>  (811) 
8.436000644764164

>  <path>  (811) 
/opt/xchem-fragalysis-2/maxwin/BulkDock/SCRATCH/511015/C25255-P116/C25255-P116.minimised.mol

>  <scratch_subdir>  (811) 
/opt/xchem-fragalysis-2/maxwin/BulkDock/SCRATCH/511015/C25255-P116

>  <fragmenstein_runtime>  (811) 
12.498681783676147

>  <fragmenstein_outcome>  (811) 
too moved

>  <fragmenstein_mode>  (811) 
expansion

>  <fragmenstein_error>  (811) 


$$$$
C25253-P93
     RDKit          3D

 36 39  0  0  0  0  0  0  0  0999 V2000
   11.3866   -9.1346   23.4643 O   0  0  0  0  0  0  0  0  0  0  0  0
   11.4051   -8.0882   24.0171 C   0  0  0  0  0  0  0  0  0  0  0  0
   12.2245   -6.7317   23.6646 N   0  0  0  0  0  0  0  0  0  0  0  0
   13.1599   -6.3819   22.4119 C   0  0  0  0  0  0  0  0  0  0  0  0
   13.4995   -4.8937   21.8060 C   0  0  0  0  0  0  0  0  0  0  0  0
   13.9328   -3.8243   22.5628 C   0  0  0  0  0  0  0  0  0  0  0  0
   14.4441   -2.8158   21.7757 N   0  0  0  0  0  0  0  0  0  0  0  0
   14.3195   -3.1064   20.4489 C   0  0  0  0  0  0  0  0  0  0  0  0
   14.6739   -2.3488   19.3048 C   0  0  0  0  0  0  0  0  0  0  0  0
   14.3715   -2.8375   18.0352 C   0  0  0  0  0  0  0  0  0  0  0  0
   13.7611   -4.0609   17.9379 C   0  0  0  0  0  0  0  0  0  0  0  0
   13.4519   -4.7723   19.1105 C   0  0  0  0  0  0  0  0  0  0  0  0
   13.7045   -4.3538   20.4170 C   0  0  0  0  0  0  0  0  0  0  0  0
   10.3186   -8.0842   25.2480 C   0  0  0  0  0  0  0  0  0  0  0  0
   10.2517   -7.2051   26.3039 C   0  0  0  0  0  0  0  0  0  0  0  0
    8.9868   -7.6223   27.4309 S   0  0  0  0  0  0  0  0  0  0  0  0
    8.4112   -8.9958   26.4985 C   0  0  0  0  0  0  0  0  0  0  0  0
    7.2179   -9.7766   26.9885 C   0  0  0  0  0  0  0  0  0  0  0  0
    6.0932   -9.3401   27.6845 C   0  0  0  0  0  0  0  0  0  0  0  0
    5.2581  -10.3458   28.0983 N   0  0  0  0  0  0  0  0  0  0  0  0
    5.9304  -11.4348   27.7897 C   0  0  0  0  0  0  0  0  0  0  0  0
    7.0111  -11.1491   26.9836 N   0  0  0  0  0  0  0  0  0  0  0  0
    9.1933   -9.1340   25.4017 N   0  0  0  0  0  0  0  0  0  0  0  0
   11.9476   -5.9908   24.2987 H   0  0  0  0  0  0  0  0  0  0  0  0
   14.1312   -6.8073   22.6937 H   0  0  0  0  0  0  0  0  0  0  0  0
   12.7758   -6.9911   21.5889 H   0  0  0  0  0  0  0  0  0  0  0  0
   13.9862   -3.7115   23.6370 H   0  0  0  0  0  0  0  0  0  0  0  0
   14.7856   -1.9364   22.1355 H   0  0  0  0  0  0  0  0  0  0  0  0
   15.1524   -1.3797   19.4179 H   0  0  0  0  0  0  0  0  0  0  0  0
   14.6178   -2.2623   17.1485 H   0  0  0  0  0  0  0  0  0  0  0  0
   13.4867   -4.4690   16.9685 H   0  0  0  0  0  0  0  0  0  0  0  0
   12.9178   -5.6807   19.0650 H   0  0  0  0  0  0  0  0  0  0  0  0
   10.8799   -6.3520   26.5161 H   0  0  0  0  0  0  0  0  0  0  0  0
    5.9069   -8.3140   27.9264 H   0  0  0  0  0  0  0  0  0  0  0  0
    5.6825  -12.4521   28.0662 H   0  0  0  0  0  0  0  0  0  0  0  0
    7.6510  -11.8273   26.5931 H   0  0  0  0  0  0  0  0  0  0  0  0
  1  2  2  0
  2  3  1  0
  3  4  1  0
  4  5  1  0
  5  6  2  0
  6  7  1  0
  7  8  1  0
  8  9  2  0
  9 10  1  0
 10 11  2  0
 11 12  1  0
 12 13  2  0
  2 14  1  0
 14 15  2  0
 15 16  1  0
 16 17  1  0
 17 18  1  0
 18 19  2  0
 19 20  1  0
 20 21  2  0
 21 22  1  0
 17 23  2  0
 13  5  1  0
 23 14  1  0
 13  8  1  0
 22 18  1  0
  3 24  1  0
  4 25  1  0
  4 26  1  0
  6 27  1  0
  7 28  1  0
  9 29  1  0
 10 30  1  0
 11 31  1  0
 12 32  1  0
 15 33  1  0
 19 34  1  0
 21 35  1  0
 22 36  1  0
M  END
>  <Energy>  (812) 
108.52492709892815

>  <compound_id>  (812) 
25253

>  <target_id>  (812) 
1

>  <reference_id>  (812) 
93

>  <inspiration_ids>  (812) 
[93, 116]

>  <energy_score>  (812) 
17.748911850812874

>  <distance_score>  (812) 
8.21252695696829

>  <path>  (812) 
/opt/xchem-fragalysis-2/maxwin/BulkDock/SCRATCH/511015/C25253-P93/C25253-P93.minimised.mol

>  <scratch_subdir>  (812) 
/opt/xchem-fragalysis-2/maxwin/BulkDock/SCRATCH/511015/C25253-P93

>  <fragmenstein_runtime>  (812) 
12.373535633087158

>  <fragmenstein_outcome>  (812) 
too moved

>  <fragmenstein_mode>  (812) 
expansion

>  <fragmenstein_error>  (812) 


$$$$
C25253-P116
     RDKit          3D

 36 39  0  0  0  0  0  0  0  0999 V2000
   11.5899   -9.0815   23.5214 O   0  0  0  0  0  0  0  0  0  0  0  0
   11.5543   -7.9647   23.9429 C   0  0  0  0  0  0  0  0  0  0  0  0
   12.2630   -6.7826   23.5281 N   0  0  0  0  0  0  0  0  0  0  0  0
   13.3059   -6.5980   22.5380 C   0  0  0  0  0  0  0  0  0  0  0  0
   13.4142   -5.1781   22.0552 C   0  0  0  0  0  0  0  0  0  0  0  0
   12.8871   -4.0409   22.6389 C   0  0  0  0  0  0  0  0  0  0  0  0
   13.3084   -2.9447   21.9369 N   0  0  0  0  0  0  0  0  0  0  0  0
   14.0529   -3.3261   20.8499 C   0  0  0  0  0  0  0  0  0  0  0  0
   14.6461   -2.5466   19.8466 C   0  0  0  0  0  0  0  0  0  0  0  0
   15.3421   -3.2026   18.8328 C   0  0  0  0  0  0  0  0  0  0  0  0
   15.4707   -4.5850   18.8515 C   0  0  0  0  0  0  0  0  0  0  0  0
   14.8867   -5.3486   19.8728 C   0  0  0  0  0  0  0  0  0  0  0  0
   14.1423   -4.7180   20.8911 C   0  0  0  0  0  0  0  0  0  0  0  0
   10.5480   -7.6965   25.0418 C   0  0  0  0  0  0  0  0  0  0  0  0
   10.5742   -6.6584   25.9586 C   0  0  0  0  0  0  0  0  0  0  0  0
    9.1799   -6.6840   26.9593 S   0  0  0  0  0  0  0  0  0  0  0  0
    8.6458   -8.1329   26.1979 C   0  0  0  0  0  0  0  0  0  0  0  0
    7.5013   -8.8370   26.6954 C   0  0  0  0  0  0  0  0  0  0  0  0
    7.3182  -10.1682   27.0090 C   0  0  0  0  0  0  0  0  0  0  0  0
    6.1318  -10.3596   27.6762 N   0  0  0  0  0  0  0  0  0  0  0  0
    5.5622   -9.1799   27.6936 C   0  0  0  0  0  0  0  0  0  0  0  0
    6.3109   -8.2443   27.0454 N   0  0  0  0  0  0  0  0  0  0  0  0
    9.4115   -8.5340   25.2004 N   0  0  0  0  0  0  0  0  0  0  0  0
   12.0487   -6.0319   24.1621 H   0  0  0  0  0  0  0  0  0  0  0  0
   13.1012   -7.2850   21.7155 H   0  0  0  0  0  0  0  0  0  0  0  0
   14.2488   -6.9025   23.0042 H   0  0  0  0  0  0  0  0  0  0  0  0
   12.2660   -3.8954   23.5111 H   0  0  0  0  0  0  0  0  0  0  0  0
   13.0458   -1.9924   22.1645 H   0  0  0  0  0  0  0  0  0  0  0  0
   14.5737   -1.4654   19.8568 H   0  0  0  0  0  0  0  0  0  0  0  0
   15.8024   -2.6291   18.0329 H   0  0  0  0  0  0  0  0  0  0  0  0
   16.0197   -5.0913   18.0624 H   0  0  0  0  0  0  0  0  0  0  0  0
   14.9947   -6.4293   19.8502 H   0  0  0  0  0  0  0  0  0  0  0  0
   11.3112   -5.8825   26.1025 H   0  0  0  0  0  0  0  0  0  0  0  0
    8.0120  -10.9847   26.8527 H   0  0  0  0  0  0  0  0  0  0  0  0
    4.6059   -8.9530   28.1299 H   0  0  0  0  0  0  0  0  0  0  0  0
    6.0489   -7.2801   26.8833 H   0  0  0  0  0  0  0  0  0  0  0  0
  1  2  2  0
  2  3  1  0
  3  4  1  0
  4  5  1  0
  5  6  2  0
  6  7  1  0
  7  8  1  0
  8  9  2  0
  9 10  1  0
 10 11  2  0
 11 12  1  0
 12 13  2  0
  2 14  1  0
 14 15  2  0
 15 16  1  0
 16 17  1  0
 17 18  1  0
 18 19  2  0
 19 20  1  0
 20 21  2  0
 21 22  1  0
 17 23  2  0
 13  5  1  0
 23 14  1  0
 13  8  1  0
 22 18  1  0
  3 24  1  0
  4 25  1  0
  4 26  1  0
  6 27  1  0
  7 28  1  0
  9 29  1  0
 10 30  1  0
 11 31  1  0
 12 32  1  0
 15 33  1  0
 19 34  1  0
 21 35  1  0
 22 36  1  0
M  END
>  <Energy>  (813) 
30.867545165320941

>  <compound_id>  (813) 
25253

>  <target_id>  (813) 
1

>  <reference_id>  (813) 
116

>  <inspiration_ids>  (813) 
[93, 116]

>  <energy_score>  (813) 
-51.92362498104285

>  <distance_score>  (813) 
8.543386272882508

>  <path>  (813) 
/opt/xchem-fragalysis-2/maxwin/BulkDock/SCRATCH/511015/C25253-P116/C25253-P116.minimised.mol

>  <scratch_subdir>  (813) 
/opt/xchem-fragalysis-2/maxwin/BulkDock/SCRATCH/511015/C25253-P116

>  <fragmenstein_runtime>  (813) 
18.26362371444702

>  <fragmenstein_outcome>  (813) 
too moved

>  <fragmenstein_mode>  (813) 
expansion

>  <fragmenstein_error>  (813) 


$$$$
C12708-P71
     RDKit          3D

 40 42  0  0  0  0  0  0  0  0999 V2000
   -0.5504  -15.5617   25.3664 C   0  0  0  0  0  0  0  0  0  0  0  0
   -1.8475  -15.7616   26.1905 C   0  0  0  0  0  0  0  0  0  0  0  0
   -2.5046  -17.0329   25.9287 O   0  0  0  0  0  0  0  0  0  0  0  0
   -3.7163  -17.2219   26.5882 C   0  0  0  0  0  0  0  0  0  0  0  0
   -4.2509  -16.3470   27.2608 O   0  0  0  0  0  0  0  0  0  0  0  0
   -4.3066  -18.5801   26.4119 C   0  0  0  0  0  0  0  0  0  0  0  0
   -3.7384  -19.5573   25.6189 C   0  0  0  0  0  0  0  0  0  0  0  0
   -4.6588  -21.0104   25.7262 S   0  0  0  0  0  0  0  0  0  0  0  0
   -5.8067  -20.2888   26.7998 C   0  0  0  0  0  0  0  0  0  0  0  0
   -6.9438  -21.0395   27.3109 N   0  0  0  0  0  0  0  0  0  0  0  0
   -7.4419  -22.4466   27.0046 C   0  0  0  0  0  0  0  0  0  0  0  0
   -6.9784  -23.2017   26.2279 O   0  0  0  0  0  0  0  0  0  0  0  0
   -9.1490  -23.1967   27.8129 C   0  0  0  0  0  0  0  0  0  0  0  0
  -10.4445  -23.7161   26.8869 C   0  0  0  0  0  0  0  0  0  0  0  0
   -9.5484  -24.3645   28.8909 N   0  0  0  0  0  0  0  0  0  0  0  0
   -9.3901  -25.7205   28.8764 C   0  0  0  0  0  0  0  0  0  0  0  0
   -9.8682  -26.2897   29.9603 N   0  0  0  0  0  0  0  0  0  0  0  0
  -10.4861  -25.3033   30.6467 C   0  0  0  0  0  0  0  0  0  0  0  0
  -10.9471  -25.2442   31.9600 C   0  0  0  0  0  0  0  0  0  0  0  0
  -11.5780  -24.0696   32.3766 C   0  0  0  0  0  0  0  0  0  0  0  0
  -11.8753  -23.0507   31.4638 C   0  0  0  0  0  0  0  0  0  0  0  0
  -11.5110  -23.1407   30.1164 C   0  0  0  0  0  0  0  0  0  0  0  0
  -10.6610  -24.2199   29.8028 C   0  0  0  0  0  0  0  0  0  0  0  0
   -5.5200  -19.0130   27.0483 N   0  0  0  0  0  0  0  0  0  0  0  0
   -0.0076  -14.6823   25.7117 H   0  0  0  0  0  0  0  0  0  0  0  0
    0.0951  -16.4393   25.4741 H   0  0  0  0  0  0  0  0  0  0  0  0
   -0.7864  -15.4658   24.3030 H   0  0  0  0  0  0  0  0  0  0  0  0
   -1.5922  -15.7300   27.2559 H   0  0  0  0  0  0  0  0  0  0  0  0
   -2.5422  -14.9459   25.9643 H   0  0  0  0  0  0  0  0  0  0  0  0
   -2.8391  -19.5117   25.0204 H   0  0  0  0  0  0  0  0  0  0  0  0
   -7.5701  -20.6127   27.9340 H   0  0  0  0  0  0  0  0  0  0  0  0
   -9.5879  -22.3446   28.3354 H   0  0  0  0  0  0  0  0  0  0  0  0
  -11.2171  -22.9337   26.8939 H   0  0  0  0  0  0  0  0  0  0  0  0
  -10.2252  -24.0014   25.8615 H   0  0  0  0  0  0  0  0  0  0  0  0
  -10.9896  -24.5978   27.2480 H   0  0  0  0  0  0  0  0  0  0  0  0
   -8.9097  -26.2822   28.0980 H   0  0  0  0  0  0  0  0  0  0  0  0
  -10.7961  -26.0764   32.6358 H   0  0  0  0  0  0  0  0  0  0  0  0
  -11.9329  -23.9898   33.4030 H   0  0  0  0  0  0  0  0  0  0  0  0
  -12.4406  -22.1902   31.8151 H   0  0  0  0  0  0  0  0  0  0  0  0
  -11.6811  -22.3095   29.4420 H   0  0  0  0  0  0  0  0  0  0  0  0
  1  2  1  0
  2  3  1  0
  3  4  1  0
  4  5  2  0
  4  6  1  0
  6  7  2  0
  7  8  1  0
  8  9  1  0
  9 10  1  0
 10 11  1  0
 11 12  2  0
 11 13  1  0
 13 14  1  0
 13 15  1  0
 15 16  1  0
 16 17  2  0
 17 18  1  0
 18 19  2  0
 19 20  1  0
 20 21  2  0
 21 22  1  0
 22 23  2  0
  9 24  2  0
 24  6  1  0
 23 15  1  0
 23 18  1  0
  1 25  1  0
  1 26  1  0
  1 27  1  0
  2 28  1  0
  2 29  1  0
  7 30  1  0
 10 31  1  0
 13 32  1  0
 14 33  1  0
 14 34  1  0
 14 35  1  0
 16 36  1  0
 19 37  1  0
 20 38  1  0
 21 39  1  0
 22 40  1  0
M  END
>  <Energy>  (814) 
181.30162342151772

>  <compound_id>  (814) 
12708

>  <target_id>  (814) 
1

>  <reference_id>  (814) 
71

>  <inspiration_ids>  (814) 
[71, 94]

>  <energy_score>  (814) 
72.63354728067708

>  <distance_score>  (814) 
19.072930581634104

>  <path>  (814) 
/opt/xchem-fragalysis-2/maxwin/BulkDock/SCRATCH/511015/C12708-P71/C12708-P71.minimised.mol

>  <scratch_subdir>  (814) 
/opt/xchem-fragalysis-2/maxwin/BulkDock/SCRATCH/511015/C12708-P71

>  <fragmenstein_runtime>  (814) 
29.220507621765137

>  <fragmenstein_outcome>  (814) 
too moved

>  <fragmenstein_mode>  (814) 
expansion

>  <fragmenstein_error>  (814) 


$$$$
C12708-P94
     RDKit          3D

 40 42  0  0  0  0  0  0  0  0999 V2000
   -2.2450   -9.8198   20.4543 C   0  0  0  0  0  0  0  0  0  0  0  0
   -3.4637  -10.4043   19.7173 C   0  0  0  0  0  0  0  0  0  0  0  0
   -3.6997  -11.7894   20.0783 O   0  0  0  0  0  0  0  0  0  0  0  0
   -4.9916  -12.2615   19.9269 C   0  0  0  0  0  0  0  0  0  0  0  0
   -5.9469  -11.5387   19.6714 O   0  0  0  0  0  0  0  0  0  0  0  0
   -5.0948  -13.7373   20.0639 C   0  0  0  0  0  0  0  0  0  0  0  0
   -4.0020  -14.5852   19.9947 C   0  0  0  0  0  0  0  0  0  0  0  0
   -4.5121  -16.2185   20.1484 S   0  0  0  0  0  0  0  0  0  0  0  0
   -6.1684  -15.7320   20.3245 C   0  0  0  0  0  0  0  0  0  0  0  0
   -7.0634  -16.7907   20.5123 N   0  0  0  0  0  0  0  0  0  0  0  0
   -8.5058  -16.7937   20.8231 C   0  0  0  0  0  0  0  0  0  0  0  0
   -9.2908  -15.8834   20.9146 O   0  0  0  0  0  0  0  0  0  0  0  0
   -9.1752  -18.3122   21.0237 C   0  0  0  0  0  0  0  0  0  0  0  0
   -8.7887  -19.2517   19.8876 C   0  0  0  0  0  0  0  0  0  0  0  0
   -8.9419  -19.0167   22.3576 N   0  0  0  0  0  0  0  0  0  0  0  0
   -7.8055  -18.5046   22.9621 C   0  0  0  0  0  0  0  0  0  0  0  0
   -8.1356  -17.3858   23.5619 N   0  0  0  0  0  0  0  0  0  0  0  0
   -9.3065  -17.7279   24.2111 C   0  0  0  0  0  0  0  0  0  0  0  0
   -9.2447  -17.3460   25.9632 C   0  0  0  0  0  0  0  0  0  0  0  0
   -9.3982  -18.6271   27.2699 C   0  0  0  0  0  0  0  0  0  0  0  0
   -9.9785  -20.5636   26.6307 C   0  0  0  0  0  0  0  0  0  0  0  0
  -10.5361  -20.5465   24.6427 C   0  0  0  0  0  0  0  0  0  0  0  0
   -9.9312  -19.2085   23.4325 C   0  0  0  0  0  0  0  0  0  0  0  0
   -6.3297  -14.4244   20.2364 N   0  0  0  0  0  0  0  0  0  0  0  0
   -2.5680   -9.3989   21.4124 H   0  0  0  0  0  0  0  0  0  0  0  0
   -1.5249  -10.6032   20.6893 H   0  0  0  0  0  0  0  0  0  0  0  0
   -1.7876   -9.0191   19.8722 H   0  0  0  0  0  0  0  0  0  0  0  0
   -3.2647  -10.3926   18.6403 H   0  0  0  0  0  0  0  0  0  0  0  0
   -4.3409   -9.7812   19.9216 H   0  0  0  0  0  0  0  0  0  0  0  0
   -2.9613  -14.3352   19.8515 H   0  0  0  0  0  0  0  0  0  0  0  0
   -6.7050  -17.7265   20.6006 H   0  0  0  0  0  0  0  0  0  0  0  0
  -10.2634  -18.1612   20.9969 H   0  0  0  0  0  0  0  0  0  0  0  0
   -8.9384  -18.7690   18.9166 H   0  0  0  0  0  0  0  0  0  0  0  0
   -7.7393  -19.5579   19.9526 H   0  0  0  0  0  0  0  0  0  0  0  0
   -9.3959  -20.1632   19.9143 H   0  0  0  0  0  0  0  0  0  0  0  0
   -6.8085  -18.8176   22.6793 H   0  0  0  0  0  0  0  0  0  0  0  0
   -8.5589  -16.5204   26.1892 H   0  0  0  0  0  0  0  0  0  0  0  0
  -10.2945  -17.8526   27.3885 H   0  0  0  0  0  0  0  0  0  0  0  0
  -10.6189  -21.2821   27.2712 H   0  0  0  0  0  0  0  0  0  0  0  0
  -11.4749  -21.0366   24.3067 H   0  0  0  0  0  0  0  0  0  0  0  0
  1  2  1  0
  2  3  1  0
  3  4  1  0
  4  5  2  0
  4  6  1  0
  6  7  2  0
  7  8  1  0
  8  9  1  0
  9 10  1  0
 10 11  1  0
 11 12  2  0
 11 13  1  0
 13 14  1  0
 13 15  1  0
 15 16  1  0
 16 17  2  0
 17 18  1  0
 18 19  2  0
 19 20  1  0
 20 21  2  0
 21 22  1  0
 22 23  2  0
  9 24  2  0
 24  6  1  0
 23 15  1  0
 23 18  1  0
  1 25  1  0
  1 26  1  0
  1 27  1  0
  2 28  1  0
  2 29  1  0
  7 30  1  0
 10 31  1  0
 13 32  1  0
 14 33  1  0
 14 34  1  0
 14 35  1  0
 16 36  1  0
 19 37  1  0
 20 38  1  0
 21 39  1  0
 22 40  1  0
M  END
>  <Energy>  (815) 
714.85786881739728

>  <compound_id>  (815) 
12708

>  <target_id>  (815) 
1

>  <reference_id>  (815) 
94

>  <inspiration_ids>  (815) 
[71, 94]

>  <energy_score>  (815) 
606.1897926765586

>  <distance_score>  (815) 
17.70040742943948

>  <path>  (815) 
/opt/xchem-fragalysis-2/maxwin/BulkDock/SCRATCH/511015/C12708-P94/C12708-P94.minimised.mol

>  <scratch_subdir>  (815) 
/opt/xchem-fragalysis-2/maxwin/BulkDock/SCRATCH/511015/C12708-P94

>  <fragmenstein_runtime>  (815) 
23.94927668571472

>  <fragmenstein_outcome>  (815) 
too moved

>  <fragmenstein_mode>  (815) 
expansion

>  <fragmenstein_error>  (815) 


$$$$
C12711-P71
     RDKit          3D

 34 36  0  0  0  0  0  0  0  0999 V2000
   16.7178   -3.3839   20.1403 C   0  0  0  0  0  0  0  0  0  0  0  0
   15.4185   -3.3301   19.5398 N   0  0  0  0  0  0  0  0  0  0  0  0
   14.7040   -4.3303   18.5983 C   0  0  0  0  0  0  0  0  0  0  0  0
   15.0924   -5.3145   18.1052 O   0  0  0  0  0  0  0  0  0  0  0  0
   13.2674   -3.8658   18.4092 C   0  0  0  0  0  0  0  0  0  0  0  0
   13.1909   -2.9280   17.2618 C   0  0  0  0  0  0  0  0  0  0  0  0
   13.8600   -1.8085   17.2621 N   0  0  0  0  0  0  0  0  0  0  0  0
   13.9917   -1.3414   15.9840 C   0  0  0  0  0  0  0  0  0  0  0  0
   15.0823   -0.3585   15.7374 C   0  0  0  0  0  0  0  0  0  0  0  0
   15.9082   -0.1815   16.9275 N   0  0  0  0  0  0  0  0  0  0  0  0
   16.9677   -0.9707   17.2905 C   0  0  0  0  0  0  0  0  0  0  0  0
   17.4007   -0.6837   18.5002 N   0  0  0  0  0  0  0  0  0  0  0  0
   16.5835    0.3222   18.9410 C   0  0  0  0  0  0  0  0  0  0  0  0
   16.5473    0.9610   20.1906 C   0  0  0  0  0  0  0  0  0  0  0  0
   15.6202    1.9841   20.3961 C   0  0  0  0  0  0  0  0  0  0  0  0
   14.7500    2.3696   19.3769 C   0  0  0  0  0  0  0  0  0  0  0  0
   14.7574    1.7353   18.1309 C   0  0  0  0  0  0  0  0  0  0  0  0
   15.6803    0.7035   17.9520 C   0  0  0  0  0  0  0  0  0  0  0  0
   13.0927   -1.8976   15.0932 C   0  0  0  0  0  0  0  0  0  0  0  0
   12.2355   -3.1749   15.8639 S   0  0  0  0  0  0  0  0  0  0  0  0
   16.7614   -4.2589   20.7931 H   0  0  0  0  0  0  0  0  0  0  0  0
   17.4664   -3.4942   19.3528 H   0  0  0  0  0  0  0  0  0  0  0  0
   16.8887   -2.4729   20.7164 H   0  0  0  0  0  0  0  0  0  0  0  0
   14.8102   -2.5350   19.7154 H   0  0  0  0  0  0  0  0  0  0  0  0
   12.6673   -4.7524   18.2362 H   0  0  0  0  0  0  0  0  0  0  0  0
   12.9298   -3.4026   19.3378 H   0  0  0  0  0  0  0  0  0  0  0  0
   14.6782    0.6181   15.4535 H   0  0  0  0  0  0  0  0  0  0  0  0
   15.7420   -0.7034   14.9335 H   0  0  0  0  0  0  0  0  0  0  0  0
   17.3545   -1.7584   16.6571 H   0  0  0  0  0  0  0  0  0  0  0  0
   17.2367    0.6609   20.9713 H   0  0  0  0  0  0  0  0  0  0  0  0
   15.5818    2.4877   21.3587 H   0  0  0  0  0  0  0  0  0  0  0  0
   14.0312    3.1672   19.5602 H   0  0  0  0  0  0  0  0  0  0  0  0
   14.0477    2.0204   17.3624 H   0  0  0  0  0  0  0  0  0  0  0  0
   12.9375   -1.6754   14.0465 H   0  0  0  0  0  0  0  0  0  0  0  0
  1  2  1  0
  2  3  1  0
  3  4  2  0
  3  5  1  0
  5  6  1  0
  6  7  2  0
  7  8  1  0
  8  9  1  0
  9 10  1  0
 10 11  1  0
 11 12  2  0
 12 13  1  0
 13 14  2  0
 14 15  1  0
 15 16  2  0
 16 17  1  0
 17 18  2  0
  8 19  2  0
 19 20  1  0
 20  6  1  0
 18 10  1  0
 18 13  1  0
  1 21  1  0
  1 22  1  0
  1 23  1  0
  2 24  1  0
  5 25  1  0
  5 26  1  0
  9 27  1  0
  9 28  1  0
 11 29  1  0
 14 30  1  0
 15 31  1  0
 16 32  1  0
 17 33  1  0
 19 34  1  0
M  END
>  <Energy>  (816) 
47.09406640463493

>  <compound_id>  (816) 
12711

>  <target_id>  (816) 
1

>  <reference_id>  (816) 
71

>  <inspiration_ids>  (816) 
[71, 94]

>  <energy_score>  (816) 
-35.923428154680494

>  <distance_score>  (816) 
16.460784140651636

>  <path>  (816) 
/opt/xchem-fragalysis-2/maxwin/BulkDock/SCRATCH/511015/C12711-P71/C12711-P71.minimised.mol

>  <scratch_subdir>  (816) 
/opt/xchem-fragalysis-2/maxwin/BulkDock/SCRATCH/511015/C12711-P71

>  <fragmenstein_runtime>  (816) 
18.755818367004395

>  <fragmenstein_outcome>  (816) 
too moved

>  <fragmenstein_mode>  (816) 
expansion

>  <fragmenstein_error>  (816) 


$$$$
C12711-P94
     RDKit          3D

 34 36  0  0  0  0  0  0  0  0999 V2000
   12.9063   -5.6500   21.5159 C   0  0  0  0  0  0  0  0  0  0  0  0
   13.2970   -4.5426   20.6979 N   0  0  0  0  0  0  0  0  0  0  0  0
   13.9059   -4.5096   19.2656 C   0  0  0  0  0  0  0  0  0  0  0  0
   14.2516   -5.3831   18.5690 O   0  0  0  0  0  0  0  0  0  0  0  0
   14.1101   -3.0722   18.8838 C   0  0  0  0  0  0  0  0  0  0  0  0
   13.4405   -2.6146   17.6247 C   0  0  0  0  0  0  0  0  0  0  0  0
   13.4760   -1.3415   17.3086 N   0  0  0  0  0  0  0  0  0  0  0  0
   13.7913   -1.3056   15.9865 C   0  0  0  0  0  0  0  0  0  0  0  0
   14.8422   -0.3336   15.5837 C   0  0  0  0  0  0  0  0  0  0  0  0
   15.8017   -0.1894   16.6837 N   0  0  0  0  0  0  0  0  0  0  0  0
   16.8069   -1.0751   16.9791 C   0  0  0  0  0  0  0  0  0  0  0  0
   17.2823   -0.8909   18.1933 N   0  0  0  0  0  0  0  0  0  0  0  0
   16.5813    0.1738   18.6953 C   0  0  0  0  0  0  0  0  0  0  0  0
   16.6299    0.7567   19.9726 C   0  0  0  0  0  0  0  0  0  0  0  0
   15.8054    1.8494   20.2478 C   0  0  0  0  0  0  0  0  0  0  0  0
   14.9514    2.3569   19.2696 C   0  0  0  0  0  0  0  0  0  0  0  0
   14.8762    1.7828   17.9963 C   0  0  0  0  0  0  0  0  0  0  0  0
   15.6987    0.6821   17.7446 C   0  0  0  0  0  0  0  0  0  0  0  0
   13.1111   -2.2698   15.2700 C   0  0  0  0  0  0  0  0  0  0  0  0
   12.6776   -3.5264   16.3903 S   0  0  0  0  0  0  0  0  0  0  0  0
   11.8444   -5.8446   21.3535 H   0  0  0  0  0  0  0  0  0  0  0  0
   13.4913   -6.5301   21.2446 H   0  0  0  0  0  0  0  0  0  0  0  0
   13.0775   -5.3896   22.5624 H   0  0  0  0  0  0  0  0  0  0  0  0
   13.0337   -3.6003   20.9776 H   0  0  0  0  0  0  0  0  0  0  0  0
   15.1937   -2.9664   18.7368 H   0  0  0  0  0  0  0  0  0  0  0  0
   13.8878   -2.3909   19.7081 H   0  0  0  0  0  0  0  0  0  0  0  0
   15.4030   -0.6809   14.7098 H   0  0  0  0  0  0  0  0  0  0  0  0
   14.4183    0.6503   15.3644 H   0  0  0  0  0  0  0  0  0  0  0  0
   17.1105   -1.8617   16.3004 H   0  0  0  0  0  0  0  0  0  0  0  0
   17.3028    0.3570   20.7227 H   0  0  0  0  0  0  0  0  0  0  0  0
   15.8324    2.3078   21.2330 H   0  0  0  0  0  0  0  0  0  0  0  0
   14.3077    3.2027   19.5071 H   0  0  0  0  0  0  0  0  0  0  0  0
   14.1714    2.1589   17.2630 H   0  0  0  0  0  0  0  0  0  0  0  0
   13.0184   -2.4122   14.2032 H   0  0  0  0  0  0  0  0  0  0  0  0
  1  2  1  0
  2  3  1  0
  3  4  2  0
  3  5  1  0
  5  6  1  0
  6  7  2  0
  7  8  1  0
  8  9  1  0
  9 10  1  0
 10 11  1  0
 11 12  2  0
 12 13  1  0
 13 14  2  0
 14 15  1  0
 15 16  2  0
 16 17  1  0
 17 18  2  0
  8 19  2  0
 19 20  1  0
 20  6  1  0
 18 10  1  0
 18 13  1  0
  1 21  1  0
  1 22  1  0
  1 23  1  0
  2 24  1  0
  5 25  1  0
  5 26  1  0
  9 27  1  0
  9 28  1  0
 11 29  1  0
 14 30  1  0
 15 31  1  0
 16 32  1  0
 17 33  1  0
 19 34  1  0
M  END
>  <Energy>  (817) 
69.299452731352673

>  <compound_id>  (817) 
12711

>  <target_id>  (817) 
1

>  <reference_id>  (817) 
94

>  <inspiration_ids>  (817) 
[71, 94]

>  <energy_score>  (817) 
-13.718041827966942

>  <distance_score>  (817) 
14.815734624846273

>  <path>  (817) 
/opt/xchem-fragalysis-2/maxwin/BulkDock/SCRATCH/511015/C12711-P94/C12711-P94.minimised.mol

>  <scratch_subdir>  (817) 
/opt/xchem-fragalysis-2/maxwin/BulkDock/SCRATCH/511015/C12711-P94

>  <fragmenstein_runtime>  (817) 
21.07651448249817

>  <fragmenstein_outcome>  (817) 
too moved

>  <fragmenstein_mode>  (817) 
expansion

>  <fragmenstein_error>  (817) 


$$$$
C12712-P71
     RDKit          3D

 36 39  0  0  0  0  0  0  0  0999 V2000
   -2.3884  -18.6161   19.6871 O   0  0  0  0  0  0  0  0  0  0  0  0
   -1.4590  -18.6373   20.4417 C   0  0  0  0  0  0  0  0  0  0  0  0
   -1.3578  -19.1416   21.8058 N   0  0  0  0  0  0  0  0  0  0  0  0
   -2.3418  -19.8727   22.6506 C   0  0  0  0  0  0  0  0  0  0  0  0
   -2.8373  -19.1566   23.9485 C   0  0  0  0  0  0  0  0  0  0  0  0
   -3.7606  -19.8736   24.8190 N   0  0  0  0  0  0  0  0  0  0  0  0
   -5.0087  -19.4315   25.1816 C   0  0  0  0  0  0  0  0  0  0  0  0
   -5.5678  -20.2050   26.0842 N   0  0  0  0  0  0  0  0  0  0  0  0
   -4.6537  -21.1924   26.3166 C   0  0  0  0  0  0  0  0  0  0  0  0
   -4.7398  -22.2983   27.1610 C   0  0  0  0  0  0  0  0  0  0  0  0
   -3.5984  -23.0746   27.3758 C   0  0  0  0  0  0  0  0  0  0  0  0
   -2.4310  -22.8247   26.6689 C   0  0  0  0  0  0  0  0  0  0  0  0
   -2.3568  -21.7819   25.7436 C   0  0  0  0  0  0  0  0  0  0  0  0
   -3.4856  -20.9748   25.5936 C   0  0  0  0  0  0  0  0  0  0  0  0
   -0.1591  -18.1074   19.8845 C   0  0  0  0  0  0  0  0  0  0  0  0
    1.1780  -18.3957   20.1237 C   0  0  0  0  0  0  0  0  0  0  0  0
    2.1407  -17.7279   19.3599 N   0  0  0  0  0  0  0  0  0  0  0  0
    1.5453  -16.8924   18.5333 C   0  0  0  0  0  0  0  0  0  0  0  0
    2.3365  -15.9021   17.5901 C   0  0  0  0  0  0  0  0  0  0  0  0
    1.7273  -14.8900   16.8811 N   0  0  0  0  0  0  0  0  0  0  0  0
    2.6997  -14.1667   16.3424 N   0  0  0  0  0  0  0  0  0  0  0  0
    3.8282  -14.7874   16.7200 N   0  0  0  0  0  0  0  0  0  0  0  0
    3.6717  -15.9066   17.4359 N   0  0  0  0  0  0  0  0  0  0  0  0
   -0.1772  -16.9551   18.5686 S   0  0  0  0  0  0  0  0  0  0  0  0
   -0.3966  -19.0714   22.1133 H   0  0  0  0  0  0  0  0  0  0  0  0
   -3.2059  -20.0980   22.0157 H   0  0  0  0  0  0  0  0  0  0  0  0
   -1.8668  -20.8250   22.9054 H   0  0  0  0  0  0  0  0  0  0  0  0
   -1.9727  -18.8917   24.5689 H   0  0  0  0  0  0  0  0  0  0  0  0
   -3.3264  -18.2178   23.6678 H   0  0  0  0  0  0  0  0  0  0  0  0
   -5.4535  -18.5385   24.7618 H   0  0  0  0  0  0  0  0  0  0  0  0
   -5.6779  -22.5147   27.6474 H   0  0  0  0  0  0  0  0  0  0  0  0
   -3.6053  -23.8813   28.1009 H   0  0  0  0  0  0  0  0  0  0  0  0
   -1.5571  -23.4508   26.8382 H   0  0  0  0  0  0  0  0  0  0  0  0
   -1.4392  -21.5993   25.1957 H   0  0  0  0  0  0  0  0  0  0  0  0
    1.5267  -19.1181   20.8509 H   0  0  0  0  0  0  0  0  0  0  0  0
    4.7465  -14.4262   16.4759 H   0  0  0  0  0  0  0  0  0  0  0  0
  1  2  2  0
  2  3  1  0
  3  4  1  0
  4  5  1  0
  5  6  1  0
  6  7  1  0
  7  8  2  0
  8  9  1  0
  9 10  2  0
 10 11  1  0
 11 12  2  0
 12 13  1  0
 13 14  2  0
  2 15  1  0
 15 16  2  0
 16 17  1  0
 17 18  2  0
 18 19  1  0
 19 20  1  0
 20 21  2  0
 21 22  1  0
 22 23  1  0
 18 24  1  0
 14  6  1  0
 24 15  1  0
 14  9  1  0
 23 19  2  0
  3 25  1  0
  4 26  1  0
  4 27  1  0
  5 28  1  0
  5 29  1  0
  7 30  1  0
 10 31  1  0
 11 32  1  0
 12 33  1  0
 13 34  1  0
 16 35  1  0
 22 36  1  0
M  END
>  <Energy>  (818) 
64.467090412225673

>  <compound_id>  (818) 
12712

>  <target_id>  (818) 
1

>  <reference_id>  (818) 
71

>  <inspiration_ids>  (818) 
[71, 94]

>  <energy_score>  (818) 
-34.3523497039896

>  <distance_score>  (818) 
14.91088264311683

>  <path>  (818) 
/opt/xchem-fragalysis-2/maxwin/BulkDock/SCRATCH/511015/C12712-P71/C12712-P71.minimised.mol

>  <scratch_subdir>  (818) 
/opt/xchem-fragalysis-2/maxwin/BulkDock/SCRATCH/511015/C12712-P71

>  <fragmenstein_runtime>  (818) 
34.05103302001953

>  <fragmenstein_outcome>  (818) 
too moved

>  <fragmenstein_mode>  (818) 
expansion

>  <fragmenstein_error>  (818) 


$$$$
C12712-P94
     RDKit          3D

 36 39  0  0  0  0  0  0  0  0999 V2000
   -7.2820  -11.3729   21.7249 O   0  0  0  0  0  0  0  0  0  0  0  0
   -6.6488  -12.0343   20.9545 C   0  0  0  0  0  0  0  0  0  0  0  0
   -6.7236  -13.4546   20.6431 N   0  0  0  0  0  0  0  0  0  0  0  0
   -7.6759  -14.5149   21.1102 C   0  0  0  0  0  0  0  0  0  0  0  0
   -7.7526  -14.9467   22.6331 C   0  0  0  0  0  0  0  0  0  0  0  0
   -8.1322  -16.3563   22.8275 N   0  0  0  0  0  0  0  0  0  0  0  0
   -7.2286  -17.3918   22.8565 C   0  0  0  0  0  0  0  0  0  0  0  0
   -7.8109  -18.5583   22.6992 N   0  0  0  0  0  0  0  0  0  0  0  0
   -9.1524  -18.2855   22.6374 C   0  0  0  0  0  0  0  0  0  0  0  0
  -10.2303  -19.1644   22.4157 C   0  0  0  0  0  0  0  0  0  0  0  0
  -11.5335  -18.6777   22.5425 C   0  0  0  0  0  0  0  0  0  0  0  0
  -11.7525  -17.3369   22.8647 C   0  0  0  0  0  0  0  0  0  0  0  0
  -10.6897  -16.4281   23.0124 C   0  0  0  0  0  0  0  0  0  0  0  0
   -9.3905  -16.9277   22.8681 C   0  0  0  0  0  0  0  0  0  0  0  0
   -5.5704  -11.2936   20.1729 C   0  0  0  0  0  0  0  0  0  0  0  0
   -5.0097  -10.0468   20.4838 C   0  0  0  0  0  0  0  0  0  0  0  0
   -4.0901   -9.5023   19.5943 N   0  0  0  0  0  0  0  0  0  0  0  0
   -3.9635  -10.3136   18.5671 C   0  0  0  0  0  0  0  0  0  0  0  0
   -3.2496   -9.8961   17.2221 C   0  0  0  0  0  0  0  0  0  0  0  0
   -3.1486  -10.7316   16.1322 N   0  0  0  0  0  0  0  0  0  0  0  0
   -2.5886  -10.0226   15.1604 N   0  0  0  0  0  0  0  0  0  0  0  0
   -2.3862   -8.8129   15.7000 N   0  0  0  0  0  0  0  0  0  0  0  0
   -2.7644   -8.6663   16.9736 N   0  0  0  0  0  0  0  0  0  0  0  0
   -4.7576  -11.8471   18.7518 S   0  0  0  0  0  0  0  0  0  0  0  0
   -6.0900  -13.6594   19.8756 H   0  0  0  0  0  0  0  0  0  0  0  0
   -7.4305  -15.3929   20.5015 H   0  0  0  0  0  0  0  0  0  0  0  0
   -8.6731  -14.1785   20.8041 H   0  0  0  0  0  0  0  0  0  0  0  0
   -6.7738  -14.8149   23.1074 H   0  0  0  0  0  0  0  0  0  0  0  0
   -8.4762  -14.3273   23.1728 H   0  0  0  0  0  0  0  0  0  0  0  0
   -6.1600  -17.2322   22.9283 H   0  0  0  0  0  0  0  0  0  0  0  0
  -10.0460  -20.2083   22.1835 H   0  0  0  0  0  0  0  0  0  0  0  0
  -12.3774  -19.3490   22.3955 H   0  0  0  0  0  0  0  0  0  0  0  0
  -12.7753  -16.9728   22.9579 H   0  0  0  0  0  0  0  0  0  0  0  0
  -10.8806  -15.3763   23.2024 H   0  0  0  0  0  0  0  0  0  0  0  0
   -5.2712   -9.4818   21.3731 H   0  0  0  0  0  0  0  0  0  0  0  0
   -1.9659   -8.0531   15.1711 H   0  0  0  0  0  0  0  0  0  0  0  0
  1  2  2  0
  2  3  1  0
  3  4  1  0
  4  5  1  0
  5  6  1  0
  6  7  1  0
  7  8  2  0
  8  9  1  0
  9 10  2  0
 10 11  1  0
 11 12  2  0
 12 13  1  0
 13 14  2  0
  2 15  1  0
 15 16  2  0
 16 17  1  0
 17 18  2  0
 18 19  1  0
 19 20  1  0
 20 21  2  0
 21 22  1  0
 22 23  1  0
 18 24  1  0
 14  6  1  0
 24 15  1  0
 14  9  1  0
 23 19  2  0
  3 25  1  0
  4 26  1  0
  4 27  1  0
  5 28  1  0
  5 29  1  0
  7 30  1  0
 10 31  1  0
 11 32  1  0
 12 33  1  0
 13 34  1  0
 16 35  1  0
 22 36  1  0
M  END
>  <Energy>  (819) 
63.266046221226318

>  <compound_id>  (819) 
12712

>  <target_id>  (819) 
1

>  <reference_id>  (819) 
94

>  <inspiration_ids>  (819) 
[71, 94]

>  <energy_score>  (819) 
-35.55339389498829

>  <distance_score>  (819) 
15.27312080812596

>  <path>  (819) 
/opt/xchem-fragalysis-2/maxwin/BulkDock/SCRATCH/511015/C12712-P94/C12712-P94.minimised.mol

>  <scratch_subdir>  (819) 
/opt/xchem-fragalysis-2/maxwin/BulkDock/SCRATCH/511015/C12712-P94

>  <fragmenstein_runtime>  (819) 
31.045397996902466

>  <fragmenstein_outcome>  (819) 
too moved

>  <fragmenstein_mode>  (819) 
expansion

>  <fragmenstein_error>  (819) 


$$$$
C12713-P71
     RDKit          3D

 31 33  0  0  0  0  0  0  0  0999 V2000
    1.6838  -19.2156   22.7985 C   0  0  0  0  0  0  0  0  0  0  0  0
    1.2504  -17.7530   22.9800 C   0  0  0  0  0  0  0  0  0  0  0  0
   -0.3397  -17.6337   23.1222 C   0  0  0  0  0  0  0  0  0  0  0  0
   -0.9419  -16.9098   22.3768 O   0  0  0  0  0  0  0  0  0  0  0  0
   -0.8191  -18.4741   24.2484 N   0  0  0  0  0  0  0  0  0  0  0  0
   -2.0655  -18.5930   24.8139 N   0  0  0  0  0  0  0  0  0  0  0  0
   -2.6618  -17.5995   25.5466 C   0  0  0  0  0  0  0  0  0  0  0  0
   -3.7303  -18.0210   26.1936 N   0  0  0  0  0  0  0  0  0  0  0  0
   -3.8204  -19.3579   25.9056 C   0  0  0  0  0  0  0  0  0  0  0  0
   -4.7729  -20.2889   26.3640 C   0  0  0  0  0  0  0  0  0  0  0  0
   -4.6792  -21.6198   25.9560 C   0  0  0  0  0  0  0  0  0  0  0  0
   -3.6489  -22.0106   25.1021 C   0  0  0  0  0  0  0  0  0  0  0  0
   -2.6815  -21.0960   24.6350 C   0  0  0  0  0  0  0  0  0  0  0  0
   -2.7859  -19.7588   25.0470 C   0  0  0  0  0  0  0  0  0  0  0  0
    1.9571  -16.8830   21.8720 C   0  0  0  0  0  0  0  0  0  0  0  0
    3.0332  -16.1328   22.0924 N   0  0  0  0  0  0  0  0  0  0  0  0
    3.5891  -15.6802   20.8976 C   0  0  0  0  0  0  0  0  0  0  0  0
    2.9601  -16.1039   19.7558 C   0  0  0  0  0  0  0  0  0  0  0  0
    1.6386  -17.1155   20.1805 S   0  0  0  0  0  0  0  0  0  0  0  0
    2.7621  -19.2917   22.6179 H   0  0  0  0  0  0  0  0  0  0  0  0
    1.1643  -19.6791   21.9524 H   0  0  0  0  0  0  0  0  0  0  0  0
    1.4646  -19.8217   23.6824 H   0  0  0  0  0  0  0  0  0  0  0  0
    1.6555  -17.3878   23.9346 H   0  0  0  0  0  0  0  0  0  0  0  0
   -0.0256  -18.8911   24.7134 H   0  0  0  0  0  0  0  0  0  0  0  0
   -2.2672  -16.5925   25.5763 H   0  0  0  0  0  0  0  0  0  0  0  0
   -5.5632  -19.9482   27.0207 H   0  0  0  0  0  0  0  0  0  0  0  0
   -5.4105  -22.3480   26.2959 H   0  0  0  0  0  0  0  0  0  0  0  0
   -3.5896  -23.0509   24.7844 H   0  0  0  0  0  0  0  0  0  0  0  0
   -1.8911  -21.4200   23.9653 H   0  0  0  0  0  0  0  0  0  0  0  0
    4.4713  -15.0574   20.9074 H   0  0  0  0  0  0  0  0  0  0  0  0
    3.2102  -15.8950   18.7266 H   0  0  0  0  0  0  0  0  0  0  0  0
  1  2  1  0
  2  3  1  0
  3  4  2  0
  3  5  1  0
  5  6  1  0
  6  7  1  0
  7  8  2  0
  8  9  1  0
  9 10  2  0
 10 11  1  0
 11 12  2  0
 12 13  1  0
 13 14  2  0
  2 15  1  0
 15 16  2  0
 16 17  1  0
 17 18  2  0
 18 19  1  0
 14  6  1  0
 19 15  1  0
 14  9  1  0
  1 20  1  0
  1 21  1  0
  1 22  1  0
  2 23  1  0
  5 24  1  0
  7 25  1  0
 10 26  1  0
 11 27  1  0
 12 28  1  0
 13 29  1  0
 17 30  1  0
 18 31  1  0
M  END
>  <Energy>  (820) 
33.140653607275752

>  <compound_id>  (820) 
12713

>  <target_id>  (820) 
1

>  <reference_id>  (820) 
71

>  <inspiration_ids>  (820) 
[71, 94]

>  <energy_score>  (820) 
-49.27761952791815

>  <distance_score>  (820) 
14.598083891281417

>  <path>  (820) 
/opt/xchem-fragalysis-2/maxwin/BulkDock/SCRATCH/511015/C12713-P71/C12713-P71.minimised.mol

>  <scratch_subdir>  (820) 
/opt/xchem-fragalysis-2/maxwin/BulkDock/SCRATCH/511015/C12713-P71

>  <fragmenstein_runtime>  (820) 
20.412453413009644

>  <fragmenstein_outcome>  (820) 
too moved

>  <fragmenstein_mode>  (820) 
expansion

>  <fragmenstein_error>  (820) 


$$$$
C12713-P94
     RDKit          3D

 31 33  0  0  0  0  0  0  0  0999 V2000
   -1.5201  -16.7408   23.1111 C   0  0  0  0  0  0  0  0  0  0  0  0
   -0.5615  -16.7904   24.3040 C   0  0  0  0  0  0  0  0  0  0  0  0
   -0.6867  -18.1944   25.0082 C   0  0  0  0  0  0  0  0  0  0  0  0
    0.1842  -19.0064   24.8727 O   0  0  0  0  0  0  0  0  0  0  0  0
   -1.9720  -18.2793   25.7129 N   0  0  0  0  0  0  0  0  0  0  0  0
   -2.5772  -19.3229   26.3322 N   0  0  0  0  0  0  0  0  0  0  0  0
   -2.5898  -19.5337   27.6847 C   0  0  0  0  0  0  0  0  0  0  0  0
   -3.3758  -20.5406   28.0174 N   0  0  0  0  0  0  0  0  0  0  0  0
   -3.9069  -20.9844   26.8315 C   0  0  0  0  0  0  0  0  0  0  0  0
   -4.7769  -22.0605   26.5922 C   0  0  0  0  0  0  0  0  0  0  0  0
   -5.1803  -22.3299   25.2832 C   0  0  0  0  0  0  0  0  0  0  0  0
   -4.7655  -21.5130   24.2339 C   0  0  0  0  0  0  0  0  0  0  0  0
   -3.9086  -20.4255   24.4494 C   0  0  0  0  0  0  0  0  0  0  0  0
   -3.4673  -20.2017   25.7587 C   0  0  0  0  0  0  0  0  0  0  0  0
    0.8780  -16.3842   23.9141 C   0  0  0  0  0  0  0  0  0  0  0  0
    1.5995  -15.5213   24.6089 N   0  0  0  0  0  0  0  0  0  0  0  0
    2.8494  -15.3591   24.0410 C   0  0  0  0  0  0  0  0  0  0  0  0
    3.0645  -16.0518   22.8713 C   0  0  0  0  0  0  0  0  0  0  0  0
    1.6508  -16.9241   22.4578 S   0  0  0  0  0  0  0  0  0  0  0  0
   -1.3489  -17.5774   22.4241 H   0  0  0  0  0  0  0  0  0  0  0  0
   -1.4085  -15.8119   22.5473 H   0  0  0  0  0  0  0  0  0  0  0  0
   -2.5639  -16.8056   23.4356 H   0  0  0  0  0  0  0  0  0  0  0  0
   -0.8887  -16.0380   25.0359 H   0  0  0  0  0  0  0  0  0  0  0  0
   -2.4950  -17.4310   25.5522 H   0  0  0  0  0  0  0  0  0  0  0  0
   -2.0091  -18.9339   28.3722 H   0  0  0  0  0  0  0  0  0  0  0  0
   -5.1052  -22.6854   27.4094 H   0  0  0  0  0  0  0  0  0  0  0  0
   -5.8334  -23.1728   25.0747 H   0  0  0  0  0  0  0  0  0  0  0  0
   -5.0961  -21.7386   23.2215 H   0  0  0  0  0  0  0  0  0  0  0  0
   -3.5554  -19.8222   23.6197 H   0  0  0  0  0  0  0  0  0  0  0  0
    3.5626  -14.7232   24.5441 H   0  0  0  0  0  0  0  0  0  0  0  0
    3.9473  -16.0895   22.2522 H   0  0  0  0  0  0  0  0  0  0  0  0
  1  2  1  0
  2  3  1  0
  3  4  2  0
  3  5  1  0
  5  6  1  0
  6  7  1  0
  7  8  2  0
  8  9  1  0
  9 10  2  0
 10 11  1  0
 11 12  2  0
 12 13  1  0
 13 14  2  0
  2 15  1  0
 15 16  2  0
 16 17  1  0
 17 18  2  0
 18 19  1  0
 14  6  1  0
 19 15  1  0
 14  9  1  0
  1 20  1  0
  1 21  1  0
  1 22  1  0
  2 23  1  0
  5 24  1  0
  7 25  1  0
 10 26  1  0
 11 27  1  0
 12 28  1  0
 13 29  1  0
 17 30  1  0
 18 31  1  0
M  END
>  <Energy>  (821) 
26.486098894396108

>  <compound_id>  (821) 
12713

>  <target_id>  (821) 
1

>  <reference_id>  (821) 
94

>  <inspiration_ids>  (821) 
[71, 94]

>  <energy_score>  (821) 
-55.93217424079356

>  <distance_score>  (821) 
14.41285251129485

>  <path>  (821) 
/opt/xchem-fragalysis-2/maxwin/BulkDock/SCRATCH/511015/C12713-P94/C12713-P94.minimised.mol

>  <scratch_subdir>  (821) 
/opt/xchem-fragalysis-2/maxwin/BulkDock/SCRATCH/511015/C12713-P94

>  <fragmenstein_runtime>  (821) 
21.999613046646118

>  <fragmenstein_outcome>  (821) 
too moved

>  <fragmenstein_mode>  (821) 
expansion

>  <fragmenstein_error>  (821) 


$$$$
C12716-P71
     RDKit          3D

 37 39  0  0  0  0  0  0  0  0999 V2000
    6.6944  -12.3361   26.7125 C   0  0  0  0  0  0  0  0  0  0  0  0
    7.0832  -10.8585   26.8382 C   0  0  0  0  0  0  0  0  0  0  0  0
    7.5316  -10.2513   25.5753 O   0  0  0  0  0  0  0  0  0  0  0  0
    8.8421   -9.5179   25.6840 C   0  0  0  0  0  0  0  0  0  0  0  0
    9.9638  -10.5535   25.5973 C   0  0  0  0  0  0  0  0  0  0  0  0
    9.1404   -8.3125   24.6365 C   0  0  0  0  0  0  0  0  0  0  0  0
   10.2443   -8.1449   23.8783 N   0  0  0  0  0  0  0  0  0  0  0  0
   10.3405   -6.8405   23.2986 C   0  0  0  0  0  0  0  0  0  0  0  0
   11.4811   -6.4506   22.3443 C   0  0  0  0  0  0  0  0  0  0  0  0
   12.3903   -5.3843   22.7850 N   0  0  0  0  0  0  0  0  0  0  0  0
   12.7160   -5.0965   24.0842 C   0  0  0  0  0  0  0  0  0  0  0  0
   13.6026   -4.1297   24.1715 N   0  0  0  0  0  0  0  0  0  0  0  0
   13.8988   -3.7835   22.8768 C   0  0  0  0  0  0  0  0  0  0  0  0
   14.7904   -2.8046   22.4015 C   0  0  0  0  0  0  0  0  0  0  0  0
   14.9497   -2.6386   21.0220 C   0  0  0  0  0  0  0  0  0  0  0  0
   14.2363   -3.4396   20.1325 C   0  0  0  0  0  0  0  0  0  0  0  0
   13.3421   -4.4217   20.5906 C   0  0  0  0  0  0  0  0  0  0  0  0
   13.1780   -4.5709   21.9767 C   0  0  0  0  0  0  0  0  0  0  0  0
    9.2519   -6.0518   23.6150 C   0  0  0  0  0  0  0  0  0  0  0  0
    8.1582   -6.8803   24.6594 S   0  0  0  0  0  0  0  0  0  0  0  0
    6.1243  -12.5095   25.8073 H   0  0  0  0  0  0  0  0  0  0  0  0
    6.1543  -12.6814   27.5971 H   0  0  0  0  0  0  0  0  0  0  0  0
    7.6043  -12.9383   26.6137 H   0  0  0  0  0  0  0  0  0  0  0  0
    7.8675  -10.7684   27.5984 H   0  0  0  0  0  0  0  0  0  0  0  0
    6.2357  -10.2646   27.1931 H   0  0  0  0  0  0  0  0  0  0  0  0
    8.8616   -9.0358   26.6708 H   0  0  0  0  0  0  0  0  0  0  0  0
   10.9470  -10.0929   25.7377 H   0  0  0  0  0  0  0  0  0  0  0  0
    9.8412  -11.3344   26.3542 H   0  0  0  0  0  0  0  0  0  0  0  0
    9.9555  -11.0561   24.6246 H   0  0  0  0  0  0  0  0  0  0  0  0
   12.1084   -7.3253   22.1409 H   0  0  0  0  0  0  0  0  0  0  0  0
   11.0327   -6.1058   21.4075 H   0  0  0  0  0  0  0  0  0  0  0  0
   12.2857   -5.6197   24.9289 H   0  0  0  0  0  0  0  0  0  0  0  0
   15.3355   -2.1883   23.1071 H   0  0  0  0  0  0  0  0  0  0  0  0
   15.6286   -1.8774   20.6483 H   0  0  0  0  0  0  0  0  0  0  0  0
   14.3620   -3.2934   19.0622 H   0  0  0  0  0  0  0  0  0  0  0  0
   12.7758   -5.0151   19.8847 H   0  0  0  0  0  0  0  0  0  0  0  0
    9.0423   -5.0395   23.3017 H   0  0  0  0  0  0  0  0  0  0  0  0
  1  2  1  0
  2  3  1  0
  3  4  1  0
  4  5  1  0
  4  6  1  0
  6  7  2  0
  7  8  1  0
  8  9  1  0
  9 10  1  0
 10 11  1  0
 11 12  2  0
 12 13  1  0
 13 14  2  0
 14 15  1  0
 15 16  2  0
 16 17  1  0
 17 18  2  0
  8 19  2  0
 19 20  1  0
 20  6  1  0
 18 10  1  0
 18 13  1  0
  1 21  1  0
  1 22  1  0
  1 23  1  0
  2 24  1  0
  2 25  1  0
  4 26  1  0
  5 27  1  0
  5 28  1  0
  5 29  1  0
  9 30  1  0
  9 31  1  0
 11 32  1  0
 14 33  1  0
 15 34  1  0
 16 35  1  0
 17 36  1  0
 19 37  1  0
M  END
>  <Energy>  (822) 
76.683104232790612

>  <compound_id>  (822) 
12716

>  <target_id>  (822) 
1

>  <reference_id>  (822) 
71

>  <inspiration_ids>  (822) 
[71, 94]

>  <energy_score>  (822) 
-30.85835630784038

>  <distance_score>  (822) 
13.861624320001656

>  <path>  (822) 
/opt/xchem-fragalysis-2/maxwin/BulkDock/SCRATCH/511015/C12716-P71/C12716-P71.minimised.mol

>  <scratch_subdir>  (822) 
/opt/xchem-fragalysis-2/maxwin/BulkDock/SCRATCH/511015/C12716-P71

>  <fragmenstein_runtime>  (822) 
19.557853937149048

>  <fragmenstein_outcome>  (822) 
too moved

>  <fragmenstein_mode>  (822) 
expansion

>  <fragmenstein_error>  (822) 


$$$$
C12716-P94
     RDKit          3D

 37 39  0  0  0  0  0  0  0  0999 V2000
    3.5611  -12.2116   22.5582 C   0  0  0  0  0  0  0  0  0  0  0  0
    4.8739  -11.0399   22.3667 C   0  0  0  0  0  0  0  0  0  0  0  0
    6.1337  -11.2526   21.4492 O   0  0  0  0  0  0  0  0  0  0  0  0
    6.7429  -10.9593   19.8247 C   0  0  0  0  0  0  0  0  0  0  0  0
    5.7730  -12.0769   19.4845 C   0  0  0  0  0  0  0  0  0  0  0  0
    8.2897   -9.9301   19.0600 C   0  0  0  0  0  0  0  0  0  0  0  0
    9.2013   -8.5197   19.5053 N   0  0  0  0  0  0  0  0  0  0  0  0
   10.7660   -8.5724   20.4554 C   0  0  0  0  0  0  0  0  0  0  0  0
   11.4671   -7.4595   21.6405 C   0  0  0  0  0  0  0  0  0  0  0  0
   12.8966   -7.1554   21.5554 N   0  0  0  0  0  0  0  0  0  0  0  0
   13.8902   -8.0522   21.8605 C   0  0  0  0  0  0  0  0  0  0  0  0
   15.0871   -7.5332   21.7084 N   0  0  0  0  0  0  0  0  0  0  0  0
   14.8826   -6.2189   21.3779 C   0  0  0  0  0  0  0  0  0  0  0  0
   15.8295   -5.2066   21.1369 C   0  0  0  0  0  0  0  0  0  0  0  0
   15.3907   -3.9144   20.8471 C   0  0  0  0  0  0  0  0  0  0  0  0
   14.0290   -3.6387   20.8153 C   0  0  0  0  0  0  0  0  0  0  0  0
   13.0676   -4.6356   21.0580 C   0  0  0  0  0  0  0  0  0  0  0  0
   13.5167   -5.9357   21.3158 C   0  0  0  0  0  0  0  0  0  0  0  0
   11.3094   -9.9662   19.5629 C   0  0  0  0  0  0  0  0  0  0  0  0
    9.7803   -8.5665   20.1102 S   0  0  0  0  0  0  0  0  0  0  0  0
    3.5282  -12.7986   21.6428 H   0  0  0  0  0  0  0  0  0  0  0  0
    2.6502  -11.7871   22.9496 H   0  0  0  0  0  0  0  0  0  0  0  0
    3.5407  -12.8996   23.4161 H   0  0  0  0  0  0  0  0  0  0  0  0
    4.7040  -10.1553   22.9357 H   0  0  0  0  0  0  0  0  0  0  0  0
    5.5551  -11.1693   23.2720 H   0  0  0  0  0  0  0  0  0  0  0  0
    7.5332  -11.7107   19.8556 H   0  0  0  0  0  0  0  0  0  0  0  0
    5.4276  -11.9335   18.5324 H   0  0  0  0  0  0  0  0  0  0  0  0
    6.0040  -13.1058   19.7112 H   0  0  0  0  0  0  0  0  0  0  0  0
    4.8975  -12.1820   20.1120 H   0  0  0  0  0  0  0  0  0  0  0  0
   11.2938   -7.9410   22.6126 H   0  0  0  0  0  0  0  0  0  0  0  0
   10.9011   -6.5200   21.5969 H   0  0  0  0  0  0  0  0  0  0  0  0
   13.6882   -9.0706   22.1663 H   0  0  0  0  0  0  0  0  0  0  0  0
   16.8876   -5.4393   21.1878 H   0  0  0  0  0  0  0  0  0  0  0  0
   16.1128   -3.1232   20.6666 H   0  0  0  0  0  0  0  0  0  0  0  0
   13.7052   -2.6216   20.6176 H   0  0  0  0  0  0  0  0  0  0  0  0
   12.0144   -4.3883   21.0658 H   0  0  0  0  0  0  0  0  0  0  0  0
   12.2097  -10.3705   20.0573 H   0  0  0  0  0  0  0  0  0  0  0  0
  1  2  1  0
  2  3  1  0
  3  4  1  0
  4  5  1  0
  4  6  1  0
  6  7  2  0
  7  8  1  0
  8  9  1  0
  9 10  1  0
 10 11  1  0
 11 12  2  0
 12 13  1  0
 13 14  2  0
 14 15  1  0
 15 16  2  0
 16 17  1  0
 17 18  2  0
  8 19  2  0
 19 20  1  0
 20  6  1  0
 18 10  1  0
 18 13  1  0
  1 21  1  0
  1 22  1  0
  1 23  1  0
  2 24  1  0
  2 25  1  0
  4 26  1  0
  5 27  1  0
  5 28  1  0
  5 29  1  0
  9 30  1  0
  9 31  1  0
 11 32  1  0
 14 33  1  0
 15 34  1  0
 16 35  1  0
 17 36  1  0
 19 37  1  0
M  END
>  <Energy>  (823) 
943.66300449281675

>  <compound_id>  (823) 
12716

>  <target_id>  (823) 
1

>  <reference_id>  (823) 
94

>  <inspiration_ids>  (823) 
[71, 94]

>  <energy_score>  (823) 
836.1215439521881

>  <distance_score>  (823) 
13.316304572782952

>  <path>  (823) 
/opt/xchem-fragalysis-2/maxwin/BulkDock/SCRATCH/511015/C12716-P94/C12716-P94.minimised.mol

>  <scratch_subdir>  (823) 
/opt/xchem-fragalysis-2/maxwin/BulkDock/SCRATCH/511015/C12716-P94

>  <fragmenstein_runtime>  (823) 
16.8022563457489

>  <fragmenstein_outcome>  (823) 
too moved

>  <fragmenstein_mode>  (823) 
expansion

>  <fragmenstein_error>  (823) 


$$$$
C12717-P71
     RDKit          3D

 34 36  0  0  0  0  0  0  0  0999 V2000
    3.0485   -2.5603   19.1777 C   0  0  0  0  0  0  0  0  0  0  0  0
    4.3177   -1.9414   18.8330 O   0  0  0  0  0  0  0  0  0  0  0  0
    4.3016   -0.7357   17.9558 C   0  0  0  0  0  0  0  0  0  0  0  0
    3.4865   -0.9623   16.6822 C   0  0  0  0  0  0  0  0  0  0  0  0
    5.7819   -0.1698   17.5433 C   0  0  0  0  0  0  0  0  0  0  0  0
    6.5909   -0.5556   16.5444 N   0  0  0  0  0  0  0  0  0  0  0  0
    7.8652    0.1264   16.4739 C   0  0  0  0  0  0  0  0  0  0  0  0
    8.8719   -0.2023   15.3392 C   0  0  0  0  0  0  0  0  0  0  0  0
   10.2769   -0.4638   15.6781 N   0  0  0  0  0  0  0  0  0  0  0  0
   10.8799   -1.6925   15.5493 C   0  0  0  0  0  0  0  0  0  0  0  0
   12.1257   -1.6783   15.9671 N   0  0  0  0  0  0  0  0  0  0  0  0
   12.4151   -0.3583   16.1741 C   0  0  0  0  0  0  0  0  0  0  0  0
   13.6190    0.2288   16.5966 C   0  0  0  0  0  0  0  0  0  0  0  0
   13.6868    1.6190   16.7130 C   0  0  0  0  0  0  0  0  0  0  0  0
   12.5816    2.4082   16.3926 C   0  0  0  0  0  0  0  0  0  0  0  0
   11.3672    1.8410   15.9726 C   0  0  0  0  0  0  0  0  0  0  0  0
   11.2980    0.4425   15.9082 C   0  0  0  0  0  0  0  0  0  0  0  0
    7.8326    1.2377   17.2865 C   0  0  0  0  0  0  0  0  0  0  0  0
    6.4023    1.2708   18.2763 S   0  0  0  0  0  0  0  0  0  0  0  0
    2.3621   -1.7996   19.5576 H   0  0  0  0  0  0  0  0  0  0  0  0
    3.2388   -3.3040   19.9545 H   0  0  0  0  0  0  0  0  0  0  0  0
    2.6338   -3.0593   18.2990 H   0  0  0  0  0  0  0  0  0  0  0  0
    3.8215    0.0549   18.5463 H   0  0  0  0  0  0  0  0  0  0  0  0
    3.8410   -1.8356   16.1268 H   0  0  0  0  0  0  0  0  0  0  0  0
    2.4337   -1.1449   16.9199 H   0  0  0  0  0  0  0  0  0  0  0  0
    3.5330   -0.0912   16.0203 H   0  0  0  0  0  0  0  0  0  0  0  0
    8.9151    0.6323   14.6377 H   0  0  0  0  0  0  0  0  0  0  0  0
    8.4963   -1.0823   14.8068 H   0  0  0  0  0  0  0  0  0  0  0  0
   10.3633   -2.5622   15.1626 H   0  0  0  0  0  0  0  0  0  0  0  0
   14.4762   -0.3969   16.8192 H   0  0  0  0  0  0  0  0  0  0  0  0
   14.6099    2.0874   17.0448 H   0  0  0  0  0  0  0  0  0  0  0  0
   12.6546    3.4901   16.4914 H   0  0  0  0  0  0  0  0  0  0  0  0
   10.5137    2.4726   15.7548 H   0  0  0  0  0  0  0  0  0  0  0  0
    8.5480    2.0457   17.3364 H   0  0  0  0  0  0  0  0  0  0  0  0
  1  2  1  0
  2  3  1  0
  3  4  1  0
  3  5  1  0
  5  6  2  0
  6  7  1  0
  7  8  1  0
  8  9  1  0
  9 10  1  0
 10 11  2  0
 11 12  1  0
 12 13  2  0
 13 14  1  0
 14 15  2  0
 15 16  1  0
 16 17  2  0
  7 18  2  0
 18 19  1  0
 19  5  1  0
 17  9  1  0
 17 12  1  0
  1 20  1  0
  1 21  1  0
  1 22  1  0
  3 23  1  0
  4 24  1  0
  4 25  1  0
  4 26  1  0
  8 27  1  0
  8 28  1  0
 10 29  1  0
 13 30  1  0
 14 31  1  0
 15 32  1  0
 16 33  1  0
 18 34  1  0
M  END
>  <Energy>  (824) 
81.01023176490672

>  <compound_id>  (824) 
12717

>  <target_id>  (824) 
1

>  <reference_id>  (824) 
71

>  <inspiration_ids>  (824) 
[71, 94]

>  <energy_score>  (824) 
-53.143439993738696

>  <distance_score>  (824) 
12.672692305435204

>  <path>  (824) 
/opt/xchem-fragalysis-2/maxwin/BulkDock/SCRATCH/511015/C12717-P71/C12717-P71.minimised.mol

>  <scratch_subdir>  (824) 
/opt/xchem-fragalysis-2/maxwin/BulkDock/SCRATCH/511015/C12717-P71

>  <fragmenstein_runtime>  (824) 
17.27048134803772

>  <fragmenstein_outcome>  (824) 
too moved

>  <fragmenstein_mode>  (824) 
expansion

>  <fragmenstein_error>  (824) 


$$$$
C12717-P94
     RDKit          3D

 34 36  0  0  0  0  0  0  0  0999 V2000
    7.9985   -9.0402   25.7685 C   0  0  0  0  0  0  0  0  0  0  0  0
    8.6619   -8.2328   24.7706 O   0  0  0  0  0  0  0  0  0  0  0  0
   10.0252   -7.7135   25.0796 C   0  0  0  0  0  0  0  0  0  0  0  0
   10.9817   -8.8882   25.2843 C   0  0  0  0  0  0  0  0  0  0  0  0
   10.6426   -6.7213   23.9533 C   0  0  0  0  0  0  0  0  0  0  0  0
   11.8935   -6.7540   23.4708 N   0  0  0  0  0  0  0  0  0  0  0  0
   12.1831   -5.6600   22.6033 C   0  0  0  0  0  0  0  0  0  0  0  0
   13.5917   -5.4527   22.0715 C   0  0  0  0  0  0  0  0  0  0  0  0
   13.8205   -4.3328   21.1485 N   0  0  0  0  0  0  0  0  0  0  0  0
   13.5582   -4.3774   19.8044 C   0  0  0  0  0  0  0  0  0  0  0  0
   14.0883   -3.3711   19.1485 N   0  0  0  0  0  0  0  0  0  0  0  0
   14.6826   -2.5977   20.1082 C   0  0  0  0  0  0  0  0  0  0  0  0
   15.3566   -1.3740   19.9618 C   0  0  0  0  0  0  0  0  0  0  0  0
   15.8778   -0.7484   21.0962 C   0  0  0  0  0  0  0  0  0  0  0  0
   15.7346   -1.3377   22.3512 C   0  0  0  0  0  0  0  0  0  0  0  0
   15.0710   -2.5638   22.5160 C   0  0  0  0  0  0  0  0  0  0  0  0
   14.5427   -3.1743   21.3722 C   0  0  0  0  0  0  0  0  0  0  0  0
   11.0783   -4.8798   22.3733 C   0  0  0  0  0  0  0  0  0  0  0  0
    9.7627   -5.3553   23.3497 S   0  0  0  0  0  0  0  0  0  0  0  0
    8.1013   -8.5748   26.7521 H   0  0  0  0  0  0  0  0  0  0  0  0
    8.4229  -10.0466   25.7684 H   0  0  0  0  0  0  0  0  0  0  0  0
    6.9408   -9.0979   25.5081 H   0  0  0  0  0  0  0  0  0  0  0  0
    9.9496   -7.1232   26.0008 H   0  0  0  0  0  0  0  0  0  0  0  0
   10.6615   -9.5194   26.1188 H   0  0  0  0  0  0  0  0  0  0  0  0
   11.9997   -8.5468   25.4979 H   0  0  0  0  0  0  0  0  0  0  0  0
   11.0085   -9.5246   24.3926 H   0  0  0  0  0  0  0  0  0  0  0  0
   13.9059   -6.3591   21.5396 H   0  0  0  0  0  0  0  0  0  0  0  0
   14.2730   -5.3194   22.9190 H   0  0  0  0  0  0  0  0  0  0  0  0
   12.9719   -5.1622   19.3580 H   0  0  0  0  0  0  0  0  0  0  0  0
   15.4580   -0.9285   18.9787 H   0  0  0  0  0  0  0  0  0  0  0  0
   16.3929    0.2032   20.9977 H   0  0  0  0  0  0  0  0  0  0  0  0
   16.1382   -0.8330   23.2265 H   0  0  0  0  0  0  0  0  0  0  0  0
   14.9481   -2.9966   23.5028 H   0  0  0  0  0  0  0  0  0  0  0  0
   11.0085   -4.0213   21.7343 H   0  0  0  0  0  0  0  0  0  0  0  0
  1  2  1  0
  2  3  1  0
  3  4  1  0
  3  5  1  0
  5  6  2  0
  6  7  1  0
  7  8  1  0
  8  9  1  0
  9 10  1  0
 10 11  2  0
 11 12  1  0
 12 13  2  0
 13 14  1  0
 14 15  2  0
 15 16  1  0
 16 17  2  0
  7 18  2  0
 18 19  1  0
 19  5  1  0
 17  9  1  0
 17 12  1  0
  1 20  1  0
  1 21  1  0
  1 22  1  0
  3 23  1  0
  4 24  1  0
  4 25  1  0
  4 26  1  0
  8 27  1  0
  8 28  1  0
 10 29  1  0
 13 30  1  0
 14 31  1  0
 15 32  1  0
 16 33  1  0
 18 34  1  0
M  END
>  <Energy>  (825) 
72.039474754228806

>  <compound_id>  (825) 
12717

>  <target_id>  (825) 
1

>  <reference_id>  (825) 
94

>  <inspiration_ids>  (825) 
[71, 94]

>  <energy_score>  (825) 
-62.1141970044186

>  <distance_score>  (825) 
11.87178869844216

>  <path>  (825) 
/opt/xchem-fragalysis-2/maxwin/BulkDock/SCRATCH/511015/C12717-P94/C12717-P94.minimised.mol

>  <scratch_subdir>  (825) 
/opt/xchem-fragalysis-2/maxwin/BulkDock/SCRATCH/511015/C12717-P94

>  <fragmenstein_runtime>  (825) 
17.72370743751526

>  <fragmenstein_outcome>  (825) 
too moved

>  <fragmenstein_mode>  (825) 
expansion

>  <fragmenstein_error>  (825) 


$$$$
C12718-P71
     RDKit          3D

 33 35  0  0  0  0  0  0  0  0999 V2000
    1.6172  -12.2757   23.5141 N   0  0  0  0  0  0  0  0  0  0  0  0
   -0.1687  -12.5367   22.7405 C   0  0  0  0  0  0  0  0  0  0  0  0
   -0.7539  -10.8465   21.8719 C   0  0  0  0  0  0  0  0  0  0  0  0
   -1.7692  -10.5764   20.7886 C   0  0  0  0  0  0  0  0  0  0  0  0
   -2.0816   -9.2636   20.4568 C   0  0  0  0  0  0  0  0  0  0  0  0
   -2.6598   -9.0347   19.2341 N   0  0  0  0  0  0  0  0  0  0  0  0
   -2.8623  -10.1986   18.6670 C   0  0  0  0  0  0  0  0  0  0  0  0
   -2.4588  -11.5813   19.6099 S   0  0  0  0  0  0  0  0  0  0  0  0
   -0.6185  -14.1795   23.9181 C   0  0  0  0  0  0  0  0  0  0  0  0
    0.2915  -14.3910   24.6371 O   0  0  0  0  0  0  0  0  0  0  0  0
   -2.2095  -15.1879   24.1013 N   0  0  0  0  0  0  0  0  0  0  0  0
   -2.6279  -16.2040   25.1067 N   0  0  0  0  0  0  0  0  0  0  0  0
   -3.2883  -15.6628   26.2258 C   0  0  0  0  0  0  0  0  0  0  0  0
   -4.0337  -16.5154   26.8850 N   0  0  0  0  0  0  0  0  0  0  0  0
   -4.0211  -17.6467   26.1303 C   0  0  0  0  0  0  0  0  0  0  0  0
   -4.7133  -18.8486   26.3947 C   0  0  0  0  0  0  0  0  0  0  0  0
   -4.6519  -19.8873   25.4721 C   0  0  0  0  0  0  0  0  0  0  0  0
   -3.9235  -19.7170   24.2998 C   0  0  0  0  0  0  0  0  0  0  0  0
   -3.2097  -18.5288   24.0259 C   0  0  0  0  0  0  0  0  0  0  0  0
   -3.2438  -17.4780   24.9621 C   0  0  0  0  0  0  0  0  0  0  0  0
    1.9158  -11.3559   23.2605 H   0  0  0  0  0  0  0  0  0  0  0  0
    1.4401  -12.3920   24.5245 H   0  0  0  0  0  0  0  0  0  0  0  0
    0.3283  -11.5643   22.9689 H   0  0  0  0  0  0  0  0  0  0  0  0
   -0.8802  -10.0202   22.5722 H   0  0  0  0  0  0  0  0  0  0  0  0
    0.1818  -10.4443   21.4391 H   0  0  0  0  0  0  0  0  0  0  0  0
   -1.7961   -8.4349   21.0826 H   0  0  0  0  0  0  0  0  0  0  0  0
   -3.3000  -10.2943   17.6828 H   0  0  0  0  0  0  0  0  0  0  0  0
   -2.8489  -14.9373   23.3587 H   0  0  0  0  0  0  0  0  0  0  0  0
   -3.1413  -14.6279   26.4985 H   0  0  0  0  0  0  0  0  0  0  0  0
   -5.2819  -18.9412   27.3146 H   0  0  0  0  0  0  0  0  0  0  0  0
   -5.1586  -20.8268   25.6703 H   0  0  0  0  0  0  0  0  0  0  0  0
   -3.8723  -20.5354   23.5823 H   0  0  0  0  0  0  0  0  0  0  0  0
   -2.6117  -18.4793   23.1210 H   0  0  0  0  0  0  0  0  0  0  0  0
  1  2  1  0
  2  3  1  0
  3  4  1  0
  4  5  2  0
  5  6  1  0
  6  7  2  0
  7  8  1  0
  2  9  1  0
  9 10  2  0
  9 11  1  0
 11 12  1  0
 12 13  1  0
 13 14  2  0
 14 15  1  0
 15 16  2  0
 16 17  1  0
 17 18  2  0
 18 19  1  0
 19 20  2  0
  8  4  1  0
 20 12  1  0
 20 15  1  0
  1 21  1  0
  1 22  1  0
  2 23  1  0
  3 24  1  0
  3 25  1  0
  5 26  1  0
  7 27  1  0
 11 28  1  0
 13 29  1  0
 16 30  1  0
 17 31  1  0
 18 32  1  0
 19 33  1  0
M  END
>  <Energy>  (826) 
483.61239001222037

>  <compound_id>  (826) 
12718

>  <target_id>  (826) 
1

>  <reference_id>  (826) 
71

>  <inspiration_ids>  (826) 
[71, 94]

>  <energy_score>  (826) 
365.9734771313632

>  <distance_score>  (826) 
14.696902117266704

>  <path>  (826) 
/opt/xchem-fragalysis-2/maxwin/BulkDock/SCRATCH/511015/C12718-P71/C12718-P71.minimised.mol

>  <scratch_subdir>  (826) 
/opt/xchem-fragalysis-2/maxwin/BulkDock/SCRATCH/511015/C12718-P71

>  <fragmenstein_runtime>  (826) 
31.393794775009155

>  <fragmenstein_outcome>  (826) 
too moved

>  <fragmenstein_mode>  (826) 
expansion

>  <fragmenstein_error>  (826) 


$$$$
C12718-P94
     RDKit          3D

 33 35  0  0  0  0  0  0  0  0999 V2000
   -0.8925  -19.5005   19.1489 N   0  0  0  0  0  0  0  0  0  0  0  0
   -1.3703  -18.1772   19.6103 C   0  0  0  0  0  0  0  0  0  0  0  0
   -1.4825  -17.1048   18.4578 C   0  0  0  0  0  0  0  0  0  0  0  0
   -0.2055  -16.4592   17.8353 C   0  0  0  0  0  0  0  0  0  0  0  0
    1.1568  -16.7028   17.9492 C   0  0  0  0  0  0  0  0  0  0  0  0
    2.0202  -15.8590   17.2522 N   0  0  0  0  0  0  0  0  0  0  0  0
    1.3225  -15.0113   16.5361 C   0  0  0  0  0  0  0  0  0  0  0  0
   -0.3816  -15.1318   16.7031 S   0  0  0  0  0  0  0  0  0  0  0  0
   -2.7703  -18.4233   20.4319 C   0  0  0  0  0  0  0  0  0  0  0  0
   -3.7312  -17.7547   20.1612 O   0  0  0  0  0  0  0  0  0  0  0  0
   -2.5672  -19.4189   21.4837 N   0  0  0  0  0  0  0  0  0  0  0  0
   -3.3778  -19.8110   22.5188 N   0  0  0  0  0  0  0  0  0  0  0  0
   -3.1746  -19.3660   23.8043 C   0  0  0  0  0  0  0  0  0  0  0  0
   -3.7933  -20.0985   24.7070 N   0  0  0  0  0  0  0  0  0  0  0  0
   -4.4303  -21.0726   23.9839 C   0  0  0  0  0  0  0  0  0  0  0  0
   -5.1816  -22.1615   24.4605 C   0  0  0  0  0  0  0  0  0  0  0  0
   -5.8101  -23.0001   23.5403 C   0  0  0  0  0  0  0  0  0  0  0  0
   -5.6666  -22.7747   22.1724 C   0  0  0  0  0  0  0  0  0  0  0  0
   -4.8649  -21.7308   21.6747 C   0  0  0  0  0  0  0  0  0  0  0  0
   -4.2418  -20.8883   22.6031 C   0  0  0  0  0  0  0  0  0  0  0  0
   -0.0375  -19.3751   18.6044 H   0  0  0  0  0  0  0  0  0  0  0  0
   -1.5701  -19.8724   18.4776 H   0  0  0  0  0  0  0  0  0  0  0  0
   -0.6513  -17.8036   20.3477 H   0  0  0  0  0  0  0  0  0  0  0  0
   -2.0842  -16.2710   18.8453 H   0  0  0  0  0  0  0  0  0  0  0  0
   -2.0640  -17.5420   17.6346 H   0  0  0  0  0  0  0  0  0  0  0  0
    1.5876  -17.4967   18.5422 H   0  0  0  0  0  0  0  0  0  0  0  0
    1.7845  -14.2915   15.8735 H   0  0  0  0  0  0  0  0  0  0  0  0
   -1.6552  -19.8478   21.3637 H   0  0  0  0  0  0  0  0  0  0  0  0
   -2.5331  -18.5257   24.0203 H   0  0  0  0  0  0  0  0  0  0  0  0
   -5.2887  -22.3231   25.5276 H   0  0  0  0  0  0  0  0  0  0  0  0
   -6.4129  -23.8294   23.8952 H   0  0  0  0  0  0  0  0  0  0  0  0
   -6.1668  -23.4383   21.4688 H   0  0  0  0  0  0  0  0  0  0  0  0
   -4.7385  -21.5839   20.6066 H   0  0  0  0  0  0  0  0  0  0  0  0
  1  2  1  0
  2  3  1  0
  3  4  1  0
  4  5  2  0
  5  6  1  0
  6  7  2  0
  7  8  1  0
  2  9  1  0
  9 10  2  0
  9 11  1  0
 11 12  1  0
 12 13  1  0
 13 14  2  0
 14 15  1  0
 15 16  2  0
 16 17  1  0
 17 18  2  0
 18 19  1  0
 19 20  2  0
  8  4  1  0
 20 12  1  0
 20 15  1  0
  1 21  1  0
  1 22  1  0
  2 23  1  0
  3 24  1  0
  3 25  1  0
  5 26  1  0
  7 27  1  0
 11 28  1  0
 13 29  1  0
 16 30  1  0
 17 31  1  0
 18 32  1  0
 19 33  1  0
M  END
>  <Energy>  (827) 
64.233436866122048

>  <compound_id>  (827) 
12718

>  <target_id>  (827) 
1

>  <reference_id>  (827) 
94

>  <inspiration_ids>  (827) 
[71, 94]

>  <energy_score>  (827) 
-53.405476014733495

>  <distance_score>  (827) 
14.858943706514033

>  <path>  (827) 
/opt/xchem-fragalysis-2/maxwin/BulkDock/SCRATCH/511015/C12718-P94/C12718-P94.minimised.mol

>  <scratch_subdir>  (827) 
/opt/xchem-fragalysis-2/maxwin/BulkDock/SCRATCH/511015/C12718-P94

>  <fragmenstein_runtime>  (827) 
33.377596616744995

>  <fragmenstein_outcome>  (827) 
too moved

>  <fragmenstein_mode>  (827) 
expansion

>  <fragmenstein_error>  (827) 


$$$$
C12719-P71
     RDKit          3D

 36 38  0  0  0  0  0  0  0  0999 V2000
   -5.0009  -13.9071   26.7631 C   0  0  0  0  0  0  0  0  0  0  0  0
   -6.2961  -14.6557   26.4813 C   0  0  0  0  0  0  0  0  0  0  0  0
   -6.7330  -14.9769   25.2158 C   0  0  0  0  0  0  0  0  0  0  0  0
   -8.2745  -15.7396   25.2819 S   0  0  0  0  0  0  0  0  0  0  0  0
   -8.3097  -15.7231   27.0487 C   0  0  0  0  0  0  0  0  0  0  0  0
   -9.8236  -16.0542   27.8443 C   0  0  0  0  0  0  0  0  0  0  0  0
  -10.0240  -14.9584   28.8905 C   0  0  0  0  0  0  0  0  0  0  0  0
  -10.1973  -17.5046   28.4770 O   0  0  0  0  0  0  0  0  0  0  0  0
  -11.6756  -17.8987   28.7595 C   0  0  0  0  0  0  0  0  0  0  0  0
  -12.4003  -16.9155   28.6474 O   0  0  0  0  0  0  0  0  0  0  0  0
  -12.2657  -19.8424   29.1033 C   0  0  0  0  0  0  0  0  0  0  0  0
  -11.6418  -21.0700   29.9338 N   0  0  0  0  0  0  0  0  0  0  0  0
  -11.4737  -21.2572   31.2914 C   0  0  0  0  0  0  0  0  0  0  0  0
  -11.4257  -22.5154   31.6555 N   0  0  0  0  0  0  0  0  0  0  0  0
  -11.5124  -23.2331   30.5062 C   0  0  0  0  0  0  0  0  0  0  0  0
  -11.3359  -24.6147   30.3206 C   0  0  0  0  0  0  0  0  0  0  0  0
  -11.3484  -25.1370   29.0255 C   0  0  0  0  0  0  0  0  0  0  0  0
  -11.5548  -24.2985   27.9368 C   0  0  0  0  0  0  0  0  0  0  0  0
  -11.7082  -22.9162   28.1047 C   0  0  0  0  0  0  0  0  0  0  0  0
  -11.6551  -22.3863   29.4047 C   0  0  0  0  0  0  0  0  0  0  0  0
   -7.2126  -15.0785   27.5136 N   0  0  0  0  0  0  0  0  0  0  0  0
   -4.1509  -14.4576   26.3488 H   0  0  0  0  0  0  0  0  0  0  0  0
   -4.8597  -13.8016   27.8426 H   0  0  0  0  0  0  0  0  0  0  0  0
   -5.0386  -12.9106   26.3130 H   0  0  0  0  0  0  0  0  0  0  0  0
   -6.2550  -14.7791   24.2675 H   0  0  0  0  0  0  0  0  0  0  0  0
  -10.5718  -15.9441   27.0495 H   0  0  0  0  0  0  0  0  0  0  0  0
  -10.0897  -13.9773   28.4080 H   0  0  0  0  0  0  0  0  0  0  0  0
   -9.1748  -14.9148   29.5795 H   0  0  0  0  0  0  0  0  0  0  0  0
  -10.9257  -15.1114   29.4876 H   0  0  0  0  0  0  0  0  0  0  0  0
  -13.3027  -19.8743   29.3321 H   0  0  0  0  0  0  0  0  0  0  0  0
  -12.2925  -20.5036   28.2378 H   0  0  0  0  0  0  0  0  0  0  0  0
  -11.3747  -20.4786   32.0305 H   0  0  0  0  0  0  0  0  0  0  0  0
  -11.1681  -25.2486   31.1864 H   0  0  0  0  0  0  0  0  0  0  0  0
  -11.1976  -26.2027   28.8794 H   0  0  0  0  0  0  0  0  0  0  0  0
  -11.5779  -24.7153   26.9328 H   0  0  0  0  0  0  0  0  0  0  0  0
  -11.8019  -22.2902   27.2268 H   0  0  0  0  0  0  0  0  0  0  0  0
  1  2  1  0
  2  3  2  0
  3  4  1  0
  4  5  1  0
  5  6  1  0
  6  7  1  0
  6  8  1  0
  8  9  1  0
  9 10  2  0
  9 11  1  0
 11 12  1  0
 12 13  1  0
 13 14  2  0
 14 15  1  0
 15 16  2  0
 16 17  1  0
 17 18  2  0
 18 19  1  0
 19 20  2  0
  5 21  2  0
 21  2  1  0
 20 12  1  0
 20 15  1  0
  1 22  1  0
  1 23  1  0
  1 24  1  0
  3 25  1  0
  6 26  1  0
  7 27  1  0
  7 28  1  0
  7 29  1  0
 11 30  1  0
 11 31  1  0
 13 32  1  0
 16 33  1  0
 17 34  1  0
 18 35  1  0
 19 36  1  0
M  END
>  <Energy>  (828) 
208.12164099771587

>  <compound_id>  (828) 
12719

>  <target_id>  (828) 
1

>  <reference_id>  (828) 
71

>  <inspiration_ids>  (828) 
[71, 94]

>  <energy_score>  (828) 
131.5000056875811

>  <distance_score>  (828) 
16.930864892169122

>  <path>  (828) 
/opt/xchem-fragalysis-2/maxwin/BulkDock/SCRATCH/511015/C12719-P71/C12719-P71.minimised.mol

>  <scratch_subdir>  (828) 
/opt/xchem-fragalysis-2/maxwin/BulkDock/SCRATCH/511015/C12719-P71

>  <fragmenstein_runtime>  (828) 
17.531816005706787

>  <fragmenstein_outcome>  (828) 
too moved

>  <fragmenstein_mode>  (828) 
expansion

>  <fragmenstein_error>  (828) 


$$$$
C12719-P94
     RDKit          3D

 36 38  0  0  0  0  0  0  0  0999 V2000
    0.7369  -14.5959   15.5740 C   0  0  0  0  0  0  0  0  0  0  0  0
   -0.3149  -14.7560   16.6192 C   0  0  0  0  0  0  0  0  0  0  0  0
   -1.4839  -14.0330   16.7182 C   0  0  0  0  0  0  0  0  0  0  0  0
   -2.5333  -14.7434   17.8827 S   0  0  0  0  0  0  0  0  0  0  0  0
   -1.3448  -15.9385   18.2502 C   0  0  0  0  0  0  0  0  0  0  0  0
   -1.5976  -17.1284   19.2372 C   0  0  0  0  0  0  0  0  0  0  0  0
   -1.8797  -18.3812   18.4010 C   0  0  0  0  0  0  0  0  0  0  0  0
   -2.7204  -16.9271   20.1916 O   0  0  0  0  0  0  0  0  0  0  0  0
   -2.7693  -17.8170   21.2684 C   0  0  0  0  0  0  0  0  0  0  0  0
   -1.8805  -18.6279   21.4956 O   0  0  0  0  0  0  0  0  0  0  0  0
   -4.0501  -17.6777   22.1203 C   0  0  0  0  0  0  0  0  0  0  0  0
   -4.3045  -18.7015   23.1761 N   0  0  0  0  0  0  0  0  0  0  0  0
   -4.1177  -20.0584   23.0522 C   0  0  0  0  0  0  0  0  0  0  0  0
   -4.4177  -20.7181   24.1501 N   0  0  0  0  0  0  0  0  0  0  0  0
   -4.8317  -19.7674   25.0385 C   0  0  0  0  0  0  0  0  0  0  0  0
   -5.2083  -19.9233   26.3831 C   0  0  0  0  0  0  0  0  0  0  0  0
   -5.6548  -18.8033   27.0890 C   0  0  0  0  0  0  0  0  0  0  0  0
   -5.7423  -17.5627   26.4597 C   0  0  0  0  0  0  0  0  0  0  0  0
   -5.3443  -17.3846   25.1255 C   0  0  0  0  0  0  0  0  0  0  0  0
   -4.8595  -18.5047   24.4377 C   0  0  0  0  0  0  0  0  0  0  0  0
   -0.2231  -15.7968   17.5436 N   0  0  0  0  0  0  0  0  0  0  0  0
    0.9705  -13.5494   15.3899 H   0  0  0  0  0  0  0  0  0  0  0  0
    0.3565  -15.0042   14.6301 H   0  0  0  0  0  0  0  0  0  0  0  0
    1.6193  -15.1850   15.8305 H   0  0  0  0  0  0  0  0  0  0  0  0
   -1.8221  -13.2008   16.1202 H   0  0  0  0  0  0  0  0  0  0  0  0
   -0.6759  -17.2499   19.8191 H   0  0  0  0  0  0  0  0  0  0  0  0
   -1.0762  -18.5721   17.6818 H   0  0  0  0  0  0  0  0  0  0  0  0
   -1.9898  -19.2708   19.0280 H   0  0  0  0  0  0  0  0  0  0  0  0
   -2.8183  -18.2720   17.8454 H   0  0  0  0  0  0  0  0  0  0  0  0
   -4.9227  -17.7314   21.4614 H   0  0  0  0  0  0  0  0  0  0  0  0
   -4.0127  -16.7093   22.6278 H   0  0  0  0  0  0  0  0  0  0  0  0
   -3.7379  -20.5121   22.1450 H   0  0  0  0  0  0  0  0  0  0  0  0
   -5.1321  -20.9015   26.8414 H   0  0  0  0  0  0  0  0  0  0  0  0
   -5.9244  -18.8790   28.1392 H   0  0  0  0  0  0  0  0  0  0  0  0
   -6.0922  -16.7033   27.0297 H   0  0  0  0  0  0  0  0  0  0  0  0
   -5.3782  -16.4013   24.6690 H   0  0  0  0  0  0  0  0  0  0  0  0
  1  2  1  0
  2  3  2  0
  3  4  1  0
  4  5  1  0
  5  6  1  0
  6  7  1  0
  6  8  1  0
  8  9  1  0
  9 10  2  0
  9 11  1  0
 11 12  1  0
 12 13  1  0
 13 14  2  0
 14 15  1  0
 15 16  2  0
 16 17  1  0
 17 18  2  0
 18 19  1  0
 19 20  2  0
  5 21  2  0
 21  2  1  0
 20 12  1  0
 20 15  1  0
  1 22  1  0
  1 23  1  0
  1 24  1  0
  3 25  1  0
  6 26  1  0
  7 27  1  0
  7 28  1  0
  7 29  1  0
 11 30  1  0
 11 31  1  0
 13 32  1  0
 16 33  1  0
 17 34  1  0
 18 35  1  0
 19 36  1  0
M  END
>  <Energy>  (829) 
35.407512690417143

>  <compound_id>  (829) 
12719

>  <target_id>  (829) 
1

>  <reference_id>  (829) 
94

>  <inspiration_ids>  (829) 
[71, 94]

>  <energy_score>  (829) 
-41.21412261971443

>  <distance_score>  (829) 
15.394984781898138

>  <path>  (829) 
/opt/xchem-fragalysis-2/maxwin/BulkDock/SCRATCH/511015/C12719-P94/C12719-P94.minimised.mol

>  <scratch_subdir>  (829) 
/opt/xchem-fragalysis-2/maxwin/BulkDock/SCRATCH/511015/C12719-P94

>  <fragmenstein_runtime>  (829) 
23.92575168609619

>  <fragmenstein_outcome>  (829) 
too moved

>  <fragmenstein_mode>  (829) 
expansion

>  <fragmenstein_error>  (829) 


$$$$
C12723-P71
     RDKit          3D

 33 35  0  0  0  0  0  0  0  0999 V2000
    2.9067  -12.5625   26.9052 C   0  0  0  0  0  0  0  0  0  0  0  0
    3.8670  -12.6746   25.3901 S   0  0  0  0  0  0  0  0  0  0  0  0
    4.5280  -13.9651   25.4955 O   0  0  0  0  0  0  0  0  0  0  0  0
    2.8883  -12.4578   24.3491 O   0  0  0  0  0  0  0  0  0  0  0  0
    5.1211  -11.2708   25.4964 C   0  0  0  0  0  0  0  0  0  0  0  0
    5.8451  -10.5695   24.2686 C   0  0  0  0  0  0  0  0  0  0  0  0
    6.5652   -9.4350   24.4039 N   0  0  0  0  0  0  0  0  0  0  0  0
    7.2302   -9.0056   23.2089 C   0  0  0  0  0  0  0  0  0  0  0  0
    7.9852   -7.6524   23.1714 C   0  0  0  0  0  0  0  0  0  0  0  0
    9.3862   -7.5779   22.7183 N   0  0  0  0  0  0  0  0  0  0  0  0
   10.1608   -8.5853   22.2169 C   0  0  0  0  0  0  0  0  0  0  0  0
   11.3636   -8.1662   21.8820 N   0  0  0  0  0  0  0  0  0  0  0  0
   11.4096   -6.8376   22.2180 C   0  0  0  0  0  0  0  0  0  0  0  0
   12.4715   -5.9226   22.0993 C   0  0  0  0  0  0  0  0  0  0  0  0
   12.3016   -4.6244   22.5798 C   0  0  0  0  0  0  0  0  0  0  0  0
   11.0915   -4.2474   23.1589 C   0  0  0  0  0  0  0  0  0  0  0  0
    9.9983   -5.1262   23.2295 C   0  0  0  0  0  0  0  0  0  0  0  0
   10.1879   -6.4340   22.7574 C   0  0  0  0  0  0  0  0  0  0  0  0
    6.9377   -9.8496   22.1534 C   0  0  0  0  0  0  0  0  0  0  0  0
    5.9119  -11.1624   22.6573 S   0  0  0  0  0  0  0  0  0  0  0  0
    2.0718  -13.2602   26.8538 H   0  0  0  0  0  0  0  0  0  0  0  0
    2.5326  -11.5436   27.0040 H   0  0  0  0  0  0  0  0  0  0  0  0
    3.5596  -12.8078   27.7449 H   0  0  0  0  0  0  0  0  0  0  0  0
    5.9063  -11.6495   26.1614 H   0  0  0  0  0  0  0  0  0  0  0  0
    4.5911  -10.4718   26.0275 H   0  0  0  0  0  0  0  0  0  0  0  0
    7.4264   -6.9714   22.5177 H   0  0  0  0  0  0  0  0  0  0  0  0
    7.9801   -7.2369   24.1865 H   0  0  0  0  0  0  0  0  0  0  0  0
    9.8184   -9.6063   22.1112 H   0  0  0  0  0  0  0  0  0  0  0  0
   13.4135   -6.2376   21.6652 H   0  0  0  0  0  0  0  0  0  0  0  0
   13.1152   -3.9063   22.5104 H   0  0  0  0  0  0  0  0  0  0  0  0
   11.0030   -3.2421   23.5646 H   0  0  0  0  0  0  0  0  0  0  0  0
    9.0649   -4.8119   23.6821 H   0  0  0  0  0  0  0  0  0  0  0  0
    7.2393   -9.7759   21.1181 H   0  0  0  0  0  0  0  0  0  0  0  0
  1  2  1  0
  2  3  2  0
  2  4  2  0
  2  5  1  0
  5  6  1  0
  6  7  2  0
  7  8  1  0
  8  9  1  0
  9 10  1  0
 10 11  1  0
 11 12  2  0
 12 13  1  0
 13 14  2  0
 14 15  1  0
 15 16  2  0
 16 17  1  0
 17 18  2  0
  8 19  2  0
 19 20  1  0
 20  6  1  0
 18 10  1  0
 18 13  1  0
  1 21  1  0
  1 22  1  0
  1 23  1  0
  5 24  1  0
  5 25  1  0
  9 26  1  0
  9 27  1  0
 11 28  1  0
 14 29  1  0
 15 30  1  0
 16 31  1  0
 17 32  1  0
 19 33  1  0
M  END
>  <Energy>  (830) 
66.583433915048886

>  <compound_id>  (830) 
12723

>  <target_id>  (830) 
1

>  <reference_id>  (830) 
71

>  <inspiration_ids>  (830) 
[71, 94]

>  <energy_score>  (830) 
-17.505134886936773

>  <distance_score>  (830) 
13.685321781085003

>  <path>  (830) 
/opt/xchem-fragalysis-2/maxwin/BulkDock/SCRATCH/511015/C12723-P71/C12723-P71.minimised.mol

>  <scratch_subdir>  (830) 
/opt/xchem-fragalysis-2/maxwin/BulkDock/SCRATCH/511015/C12723-P71

>  <fragmenstein_runtime>  (830) 
28.701245546340942

>  <fragmenstein_outcome>  (830) 
too moved

>  <fragmenstein_mode>  (830) 
expansion

>  <fragmenstein_error>  (830) 


$$$$
C12723-P94
     RDKit          3D

 33 35  0  0  0  0  0  0  0  0999 V2000
    3.3742  -12.7121   24.2118 C   0  0  0  0  0  0  0  0  0  0  0  0
    4.1105  -12.3427   25.7664 S   0  0  0  0  0  0  0  0  0  0  0  0
    3.2581  -11.3708   26.4309 O   0  0  0  0  0  0  0  0  0  0  0  0
    4.2347  -13.6345   26.4369 O   0  0  0  0  0  0  0  0  0  0  0  0
    5.8230  -11.6389   25.3922 C   0  0  0  0  0  0  0  0  0  0  0  0
    6.1522  -10.4659   24.3650 C   0  0  0  0  0  0  0  0  0  0  0  0
    6.9440   -9.4112   24.6379 N   0  0  0  0  0  0  0  0  0  0  0  0
    7.4241   -8.7105   23.4806 C   0  0  0  0  0  0  0  0  0  0  0  0
    8.2765   -7.4311   23.6261 C   0  0  0  0  0  0  0  0  0  0  0  0
    9.5712   -7.3265   22.9324 N   0  0  0  0  0  0  0  0  0  0  0  0
   10.2432   -8.3110   22.2653 C   0  0  0  0  0  0  0  0  0  0  0  0
   11.4014   -7.8916   21.8012 N   0  0  0  0  0  0  0  0  0  0  0  0
   11.5304   -6.5931   22.2226 C   0  0  0  0  0  0  0  0  0  0  0  0
   12.5986   -5.6972   22.0428 C   0  0  0  0  0  0  0  0  0  0  0  0
   12.5303   -4.4400   22.6429 C   0  0  0  0  0  0  0  0  0  0  0  0
   11.4100   -4.0780   23.3907 C   0  0  0  0  0  0  0  0  0  0  0  0
   10.3111   -4.9373   23.5355 C   0  0  0  0  0  0  0  0  0  0  0  0
   10.4021   -6.2062   22.9454 C   0  0  0  0  0  0  0  0  0  0  0  0
    6.9130   -9.2506   22.3169 C   0  0  0  0  0  0  0  0  0  0  0  0
    5.9370  -10.6396   22.6502 S   0  0  0  0  0  0  0  0  0  0  0  0
    3.8539  -13.5925   23.7824 H   0  0  0  0  0  0  0  0  0  0  0  0
    3.4826  -11.8631   23.5435 H   0  0  0  0  0  0  0  0  0  0  0  0
    2.3258  -12.8733   24.4061 H   0  0  0  0  0  0  0  0  0  0  0  0
    6.4116  -12.5102   25.0788 H   0  0  0  0  0  0  0  0  0  0  0  0
    6.1978  -11.3206   26.3728 H   0  0  0  0  0  0  0  0  0  0  0  0
    7.6760   -6.5835   23.2740 H   0  0  0  0  0  0  0  0  0  0  0  0
    8.4971   -7.2815   24.6898 H   0  0  0  0  0  0  0  0  0  0  0  0
    9.8632   -9.3172   22.1456 H   0  0  0  0  0  0  0  0  0  0  0  0
   13.4691   -5.9951   21.4704 H   0  0  0  0  0  0  0  0  0  0  0  0
   13.3504   -3.7359   22.5242 H   0  0  0  0  0  0  0  0  0  0  0  0
   11.3909   -3.0964   23.8609 H   0  0  0  0  0  0  0  0  0  0  0  0
    9.4507   -4.6387   24.1233 H   0  0  0  0  0  0  0  0  0  0  0  0
    7.0559   -8.9204   21.2975 H   0  0  0  0  0  0  0  0  0  0  0  0
  1  2  1  0
  2  3  2  0
  2  4  2  0
  2  5  1  0
  5  6  1  0
  6  7  2  0
  7  8  1  0
  8  9  1  0
  9 10  1  0
 10 11  1  0
 11 12  2  0
 12 13  1  0
 13 14  2  0
 14 15  1  0
 15 16  2  0
 16 17  1  0
 17 18  2  0
  8 19  2  0
 19 20  1  0
 20  6  1  0
 18 10  1  0
 18 13  1  0
  1 21  1  0
  1 22  1  0
  1 23  1  0
  5 24  1  0
  5 25  1  0
  9 26  1  0
  9 27  1  0
 11 28  1  0
 14 29  1  0
 15 30  1  0
 16 31  1  0
 17 32  1  0
 19 33  1  0
M  END
>  <Energy>  (831) 
68.03436886364014

>  <compound_id>  (831) 
12723

>  <target_id>  (831) 
1

>  <reference_id>  (831) 
94

>  <inspiration_ids>  (831) 
[71, 94]

>  <energy_score>  (831) 
-16.0541999383463

>  <distance_score>  (831) 
13.879629151561213

>  <path>  (831) 
/opt/xchem-fragalysis-2/maxwin/BulkDock/SCRATCH/511015/C12723-P94/C12723-P94.minimised.mol

>  <scratch_subdir>  (831) 
/opt/xchem-fragalysis-2/maxwin/BulkDock/SCRATCH/511015/C12723-P94

>  <fragmenstein_runtime>  (831) 
26.579654455184937

>  <fragmenstein_outcome>  (831) 
too moved

>  <fragmenstein_mode>  (831) 
expansion

>  <fragmenstein_error>  (831) 


$$$$
C12724-P71
     RDKit          3D

 41 43  0  0  0  0  0  0  0  0999 V2000
    1.8776   -6.9342   21.1459 O   0  0  0  0  0  0  0  0  0  0  0  0
    2.3604   -8.1005   21.9799 C   0  0  0  0  0  0  0  0  0  0  0  0
    0.6083   -9.3658   22.2735 C   0  0  0  0  0  0  0  0  0  0  0  0
    0.3227  -11.4672   22.7796 C   0  0  0  0  0  0  0  0  0  0  0  0
   -0.3067  -13.5474   23.3160 C   0  0  0  0  0  0  0  0  0  0  0  0
   -1.3309  -14.5685   24.7054 N   0  0  0  0  0  0  0  0  0  0  0  0
   -2.6652  -15.3506   24.3009 C   0  0  0  0  0  0  0  0  0  0  0  0
   -3.6112  -15.8895   24.9740 N   0  0  0  0  0  0  0  0  0  0  0  0
   -3.5623  -15.1862   26.0619 C   0  0  0  0  0  0  0  0  0  0  0  0
   -4.5409  -15.4023   27.0767 C   0  0  0  0  0  0  0  0  0  0  0  0
   -4.2240  -15.2717   28.4061 C   0  0  0  0  0  0  0  0  0  0  0  0
   -2.9160  -14.9943   28.6843 C   0  0  0  0  0  0  0  0  0  0  0  0
   -1.9984  -14.7032   27.6364 C   0  0  0  0  0  0  0  0  0  0  0  0
   -2.2955  -14.4812   26.1653 C   0  0  0  0  0  0  0  0  0  0  0  0
    4.5192   -8.2152   22.2606 N   0  0  0  0  0  0  0  0  0  0  0  0
    6.2102   -7.2219   21.4343 C   0  0  0  0  0  0  0  0  0  0  0  0
    7.1020   -7.7174   19.9603 N   0  0  0  0  0  0  0  0  0  0  0  0
    9.1295   -7.8797   19.8058 C   0  0  0  0  0  0  0  0  0  0  0  0
    9.5481   -6.2205   19.2084 C   0  0  0  0  0  0  0  0  0  0  0  0
   10.7629   -5.1172   17.9418 C   0  0  0  0  0  0  0  0  0  0  0  0
   12.4413   -4.6947   18.4573 C   0  0  0  0  0  0  0  0  0  0  0  0
   12.8252   -3.4255   17.9138 O   0  0  0  0  0  0  0  0  0  0  0  0
    7.0975   -6.3841   19.2355 S   0  0  0  0  0  0  0  0  0  0  0  0
   -0.1367   -8.7278   22.7692 H   0  0  0  0  0  0  0  0  0  0  0  0
    0.3009   -9.4112   21.2227 H   0  0  0  0  0  0  0  0  0  0  0  0
   -0.5399  -11.1835   22.1323 H   0  0  0  0  0  0  0  0  0  0  0  0
    1.3692  -11.6443   22.7475 H   0  0  0  0  0  0  0  0  0  0  0  0
    0.5712  -14.0211   23.8768 H   0  0  0  0  0  0  0  0  0  0  0  0
   -0.3587  -14.3178   22.5394 H   0  0  0  0  0  0  0  0  0  0  0  0
   -2.9362  -15.1659   23.3178 H   0  0  0  0  0  0  0  0  0  0  0  0
   -5.4856  -15.8586   26.7937 H   0  0  0  0  0  0  0  0  0  0  0  0
   -4.9378  -15.5090   29.1864 H   0  0  0  0  0  0  0  0  0  0  0  0
   -2.5596  -15.0148   29.7117 H   0  0  0  0  0  0  0  0  0  0  0  0
   -0.9823  -14.5634   28.0082 H   0  0  0  0  0  0  0  0  0  0  0  0
    4.7092   -8.9954   22.9264 H   0  0  0  0  0  0  0  0  0  0  0  0
    9.5348   -8.8906   19.7144 H   0  0  0  0  0  0  0  0  0  0  0  0
   10.5569   -4.2944   17.2408 H   0  0  0  0  0  0  0  0  0  0  0  0
   11.0704   -5.6026   16.9304 H   0  0  0  0  0  0  0  0  0  0  0  0
   12.5685   -4.7281   19.5473 H   0  0  0  0  0  0  0  0  0  0  0  0
   13.1469   -5.3799   17.9983 H   0  0  0  0  0  0  0  0  0  0  0  0
   13.6444   -3.1682   18.3701 H   0  0  0  0  0  0  0  0  0  0  0  0
  1  2  2  0
  2  3  1  0
  3  4  1  0
  4  5  1  0
  5  6  1  0
  6  7  1  0
  7  8  2  0
  8  9  1  0
  9 10  2  0
 10 11  1  0
 11 12  2  0
 12 13  1  0
 13 14  2  0
  2 15  1  0
 15 16  1  0
 16 17  2  0
 17 18  1  0
 18 19  2  0
 19 20  1  0
 20 21  1  0
 21 22  1  0
 19 23  1  0
 14  6  1  0
 23 16  1  0
 14  9  1  0
  3 24  1  0
  3 25  1  0
  4 26  1  0
  4 27  1  0
  5 28  1  0
  5 29  1  0
  7 30  1  0
 10 31  1  0
 11 32  1  0
 12 33  1  0
 13 34  1  0
 15 35  1  0
 18 36  1  0
 20 37  1  0
 20 38  1  0
 21 39  1  0
 21 40  1  0
 22 41  1  0
M  END
>  <Energy>  (832) 
2205.103314833143

>  <compound_id>  (832) 
12724

>  <target_id>  (832) 
1

>  <reference_id>  (832) 
71

>  <inspiration_ids>  (832) 
[71, 94]

>  <energy_score>  (832) 
2161.6967076209307

>  <distance_score>  (832) 
13.101832716687102

>  <path>  (832) 
/opt/xchem-fragalysis-2/maxwin/BulkDock/SCRATCH/511015/C12724-P71/C12724-P71.minimised.mol

>  <scratch_subdir>  (832) 
/opt/xchem-fragalysis-2/maxwin/BulkDock/SCRATCH/511015/C12724-P71

>  <fragmenstein_runtime>  (832) 
28.438814401626587

>  <fragmenstein_outcome>  (832) 
too moved

>  <fragmenstein_mode>  (832) 
expansion

>  <fragmenstein_error>  (832) 


$$$$
C12724-P94
     RDKit          3D

 41 43  0  0  0  0  0  0  0  0999 V2000
   -2.3873  -12.3850   25.5001 O   0  0  0  0  0  0  0  0  0  0  0  0
   -3.4772  -12.2394   25.0316 C   0  0  0  0  0  0  0  0  0  0  0  0
   -4.7647  -13.2796   25.3315 C   0  0  0  0  0  0  0  0  0  0  0  0
   -4.8225  -14.2206   26.5980 C   0  0  0  0  0  0  0  0  0  0  0  0
   -6.1247  -15.0955   26.6828 C   0  0  0  0  0  0  0  0  0  0  0  0
   -6.0047  -16.3434   27.4261 N   0  0  0  0  0  0  0  0  0  0  0  0
   -5.6874  -17.5611   26.8804 C   0  0  0  0  0  0  0  0  0  0  0  0
   -5.4736  -18.4771   27.7965 N   0  0  0  0  0  0  0  0  0  0  0  0
   -5.6743  -17.8240   28.9910 C   0  0  0  0  0  0  0  0  0  0  0  0
   -5.4580  -18.2570   30.3031 C   0  0  0  0  0  0  0  0  0  0  0  0
   -5.8403  -17.4304   31.3623 C   0  0  0  0  0  0  0  0  0  0  0  0
   -6.4014  -16.1796   31.1224 C   0  0  0  0  0  0  0  0  0  0  0  0
   -6.5434  -15.6879   29.8220 C   0  0  0  0  0  0  0  0  0  0  0  0
   -6.1416  -16.5266   28.7790 C   0  0  0  0  0  0  0  0  0  0  0  0
   -4.0492  -11.1010   23.8898 N   0  0  0  0  0  0  0  0  0  0  0  0
   -3.1842   -9.7904   22.8725 C   0  0  0  0  0  0  0  0  0  0  0  0
   -3.5132   -9.8615   21.5585 N   0  0  0  0  0  0  0  0  0  0  0  0
   -2.4385   -9.5639   20.6569 C   0  0  0  0  0  0  0  0  0  0  0  0
   -1.3452   -9.0329   21.2756 C   0  0  0  0  0  0  0  0  0  0  0  0
    0.0705   -8.6386   21.0343 C   0  0  0  0  0  0  0  0  0  0  0  0
    0.4396   -8.3843   19.5743 C   0  0  0  0  0  0  0  0  0  0  0  0
    1.4882   -7.9112   18.7889 O   0  0  0  0  0  0  0  0  0  0  0  0
   -1.8704   -8.7572   22.8033 S   0  0  0  0  0  0  0  0  0  0  0  0
   -4.7529  -13.9701   24.4812 H   0  0  0  0  0  0  0  0  0  0  0  0
   -5.7186  -12.7517   25.2403 H   0  0  0  0  0  0  0  0  0  0  0  0
   -3.9382  -14.8691   26.5742 H   0  0  0  0  0  0  0  0  0  0  0  0
   -4.7357  -13.6087   27.5032 H   0  0  0  0  0  0  0  0  0  0  0  0
   -6.4451  -15.3712   25.6706 H   0  0  0  0  0  0  0  0  0  0  0  0
   -6.9390  -14.5138   27.1284 H   0  0  0  0  0  0  0  0  0  0  0  0
   -5.5860  -17.7086   25.8138 H   0  0  0  0  0  0  0  0  0  0  0  0
   -5.0380  -19.2346   30.5052 H   0  0  0  0  0  0  0  0  0  0  0  0
   -5.7264  -17.7930   32.3814 H   0  0  0  0  0  0  0  0  0  0  0  0
   -6.7012  -15.5617   31.9659 H   0  0  0  0  0  0  0  0  0  0  0  0
   -6.9145  -14.6845   29.6450 H   0  0  0  0  0  0  0  0  0  0  0  0
   -5.0642  -11.3257   23.6307 H   0  0  0  0  0  0  0  0  0  0  0  0
   -2.5536   -9.8046   19.6077 H   0  0  0  0  0  0  0  0  0  0  0  0
    0.4405   -7.8562   21.7038 H   0  0  0  0  0  0  0  0  0  0  0  0
    0.6054   -9.5226   21.3952 H   0  0  0  0  0  0  0  0  0  0  0  0
    1.1923   -9.1311   19.7433 H   0  0  0  0  0  0  0  0  0  0  0  0
   -0.4115   -8.5160   18.9008 H   0  0  0  0  0  0  0  0  0  0  0  0
    1.5663   -8.5214   18.0297 H   0  0  0  0  0  0  0  0  0  0  0  0
  1  2  2  0
  2  3  1  0
  3  4  1  0
  4  5  1  0
  5  6  1  0
  6  7  1  0
  7  8  2  0
  8  9  1  0
  9 10  2  0
 10 11  1  0
 11 12  2  0
 12 13  1  0
 13 14  2  0
  2 15  1  0
 15 16  1  0
 16 17  2  0
 17 18  1  0
 18 19  2  0
 19 20  1  0
 20 21  1  0
 21 22  1  0
 19 23  1  0
 14  6  1  0
 23 16  1  0
 14  9  1  0
  3 24  1  0
  3 25  1  0
  4 26  1  0
  4 27  1  0
  5 28  1  0
  5 29  1  0
  7 30  1  0
 10 31  1  0
 11 32  1  0
 12 33  1  0
 13 34  1  0
 15 35  1  0
 18 36  1  0
 20 37  1  0
 20 38  1  0
 21 39  1  0
 21 40  1  0
 22 41  1  0
M  END
>  <Energy>  (833) 
232.30309224170219

>  <compound_id>  (833) 
12724

>  <target_id>  (833) 
1

>  <reference_id>  (833) 
94

>  <inspiration_ids>  (833) 
[71, 94]

>  <energy_score>  (833) 
188.89648502950172

>  <distance_score>  (833) 
13.644444334969375

>  <path>  (833) 
/opt/xchem-fragalysis-2/maxwin/BulkDock/SCRATCH/511015/C12724-P94/C12724-P94.minimised.mol

>  <scratch_subdir>  (833) 
/opt/xchem-fragalysis-2/maxwin/BulkDock/SCRATCH/511015/C12724-P94

>  <fragmenstein_runtime>  (833) 
24.652777433395386

>  <fragmenstein_outcome>  (833) 
too moved

>  <fragmenstein_mode>  (833) 
expansion

>  <fragmenstein_error>  (833) 


$$$$
C12726-P71
     RDKit          3D

 40 42  0  0  0  0  0  0  0  0999 V2000
    4.2194  -13.1238   20.8654 C   0  0  0  0  0  0  0  0  0  0  0  0
    4.2900  -11.6201   22.0373 C   0  0  0  0  0  0  0  0  0  0  0  0
    6.1278  -11.3784   21.6609 C   0  0  0  0  0  0  0  0  0  0  0  0
    6.4410  -11.4943   20.4975 O   0  0  0  0  0  0  0  0  0  0  0  0
    6.9705  -11.1736   22.8723 N   0  0  0  0  0  0  0  0  0  0  0  0
    8.4283  -11.1323   23.0319 C   0  0  0  0  0  0  0  0  0  0  0  0
    8.9682   -9.9013   23.7886 C   0  0  0  0  0  0  0  0  0  0  0  0
   10.0086   -9.0844   23.0418 C   0  0  0  0  0  0  0  0  0  0  0  0
    9.8336   -7.8670   22.5599 N   0  0  0  0  0  0  0  0  0  0  0  0
   11.0680   -7.3041   22.2147 C   0  0  0  0  0  0  0  0  0  0  0  0
   11.2368   -5.9661   21.6590 C   0  0  0  0  0  0  0  0  0  0  0  0
   12.3232   -5.4554   21.4226 O   0  0  0  0  0  0  0  0  0  0  0  0
   10.0888   -5.3398   21.3184 O   0  0  0  0  0  0  0  0  0  0  0  0
   12.1440   -8.1580   22.3677 C   0  0  0  0  0  0  0  0  0  0  0  0
   11.6175   -9.6852   22.9103 S   0  0  0  0  0  0  0  0  0  0  0  0
    2.5527  -11.2686   22.7102 N   0  0  0  0  0  0  0  0  0  0  0  0
    1.0734  -10.5769   21.7674 C   0  0  0  0  0  0  0  0  0  0  0  0
   -0.0669  -10.8734   22.2640 N   0  0  0  0  0  0  0  0  0  0  0  0
    0.4460  -11.9398   22.9108 C   0  0  0  0  0  0  0  0  0  0  0  0
   -0.1362  -13.6878   23.1705 C   0  0  0  0  0  0  0  0  0  0  0  0
    0.2377  -14.2321   24.4157 C   0  0  0  0  0  0  0  0  0  0  0  0
    1.2762  -13.4652   25.3774 C   0  0  0  0  0  0  0  0  0  0  0  0
    2.2382  -13.0067   24.4577 C   0  0  0  0  0  0  0  0  0  0  0  0
    1.8841  -11.9749   23.6245 C   0  0  0  0  0  0  0  0  0  0  0  0
    5.1875  -13.6443   20.8450 H   0  0  0  0  0  0  0  0  0  0  0  0
    3.4486  -13.8499   21.1012 H   0  0  0  0  0  0  0  0  0  0  0  0
    4.1990  -12.8771   19.8014 H   0  0  0  0  0  0  0  0  0  0  0  0
    3.9998  -12.2319   22.8930 H   0  0  0  0  0  0  0  0  0  0  0  0
    6.3682  -11.0355   23.6761 H   0  0  0  0  0  0  0  0  0  0  0  0
    8.6867  -12.0404   23.5877 H   0  0  0  0  0  0  0  0  0  0  0  0
    8.8661  -11.2228   22.0321 H   0  0  0  0  0  0  0  0  0  0  0  0
    8.1634   -9.2322   24.1049 H   0  0  0  0  0  0  0  0  0  0  0  0
    9.4245  -10.2498   24.7255 H   0  0  0  0  0  0  0  0  0  0  0  0
   10.4322   -4.6163   20.7338 H   0  0  0  0  0  0  0  0  0  0  0  0
   13.1865   -7.9612   22.1547 H   0  0  0  0  0  0  0  0  0  0  0  0
    1.3373   -9.6714   21.2136 H   0  0  0  0  0  0  0  0  0  0  0  0
   -0.4687  -14.3882   22.4318 H   0  0  0  0  0  0  0  0  0  0  0  0
   -0.7661  -14.6494   24.6591 H   0  0  0  0  0  0  0  0  0  0  0  0
    1.4087  -13.7324   26.4018 H   0  0  0  0  0  0  0  0  0  0  0  0
    3.2503  -13.3968   24.4583 H   0  0  0  0  0  0  0  0  0  0  0  0
  1  2  1  0
  2  3  1  0
  3  4  2  0
  3  5  1  0
  5  6  1  0
  6  7  1  0
  7  8  1  0
  8  9  2  0
  9 10  1  0
 10 11  1  0
 11 12  2  0
 11 13  1  0
 10 14  2  0
 14 15  1  0
  2 16  1  0
 16 17  1  0
 17 18  2  0
 18 19  1  0
 19 20  2  0
 20 21  1  0
 21 22  2  0
 22 23  1  0
 23 24  2  0
 15  8  1  0
 24 16  1  0
 24 19  1  0
  1 25  1  0
  1 26  1  0
  1 27  1  0
  2 28  1  0
  5 29  1  0
  6 30  1  0
  6 31  1  0
  7 32  1  0
  7 33  1  0
 13 34  1  0
 14 35  1  0
 17 36  1  0
 20 37  1  0
 21 38  1  0
 22 39  1  0
 23 40  1  0
M  END
>  <Energy>  (834) 
526.21764468500839

>  <compound_id>  (834) 
12726

>  <target_id>  (834) 
1

>  <reference_id>  (834) 
71

>  <inspiration_ids>  (834) 
[71, 94]

>  <energy_score>  (834) 
435.5024580069571

>  <distance_score>  (834) 
16.015147445731856

>  <path>  (834) 
/opt/xchem-fragalysis-2/maxwin/BulkDock/SCRATCH/511015/C12726-P71/C12726-P71.minimised.mol

>  <scratch_subdir>  (834) 
/opt/xchem-fragalysis-2/maxwin/BulkDock/SCRATCH/511015/C12726-P71

>  <fragmenstein_runtime>  (834) 
24.652711153030396

>  <fragmenstein_outcome>  (834) 
too moved

>  <fragmenstein_mode>  (834) 
expansion

>  <fragmenstein_error>  (834) 


$$$$
C12726-P94
     RDKit          3D

 40 42  0  0  0  0  0  0  0  0999 V2000
   -4.5648  -18.6374   21.4948 C   0  0  0  0  0  0  0  0  0  0  0  0
   -3.5518  -19.7891   21.3233 C   0  0  0  0  0  0  0  0  0  0  0  0
   -2.0407  -19.4381   20.8737 C   0  0  0  0  0  0  0  0  0  0  0  0
   -1.1385  -19.9157   21.5046 O   0  0  0  0  0  0  0  0  0  0  0  0
   -2.0260  -18.6275   19.6563 N   0  0  0  0  0  0  0  0  0  0  0  0
   -0.8998  -18.2221   18.7624 C   0  0  0  0  0  0  0  0  0  0  0  0
    0.3434  -17.5344   19.3757 C   0  0  0  0  0  0  0  0  0  0  0  0
    1.2357  -16.7311   18.3889 C   0  0  0  0  0  0  0  0  0  0  0  0
    0.8051  -16.0350   17.3512 N   0  0  0  0  0  0  0  0  0  0  0  0
    1.8360  -15.2915   16.7624 C   0  0  0  0  0  0  0  0  0  0  0  0
    1.6177  -14.4252   15.6084 C   0  0  0  0  0  0  0  0  0  0  0  0
    2.4615  -13.6939   15.1068 O   0  0  0  0  0  0  0  0  0  0  0  0
    0.3629  -14.4549   15.1042 O   0  0  0  0  0  0  0  0  0  0  0  0
    3.0629  -15.4200   17.3889 C   0  0  0  0  0  0  0  0  0  0  0  0
    2.9395  -16.5276   18.6918 S   0  0  0  0  0  0  0  0  0  0  0  0
   -3.7078  -20.6574   22.5305 N   0  0  0  0  0  0  0  0  0  0  0  0
   -2.9616  -20.6702   23.6797 C   0  0  0  0  0  0  0  0  0  0  0  0
   -3.4948  -21.4101   24.6251 N   0  0  0  0  0  0  0  0  0  0  0  0
   -4.6099  -21.9488   24.0539 C   0  0  0  0  0  0  0  0  0  0  0  0
   -5.5164  -22.8542   24.5881 C   0  0  0  0  0  0  0  0  0  0  0  0
   -6.5874  -23.2470   23.7863 C   0  0  0  0  0  0  0  0  0  0  0  0
   -6.8006  -22.7326   22.5144 C   0  0  0  0  0  0  0  0  0  0  0  0
   -5.9039  -21.8244   21.9727 C   0  0  0  0  0  0  0  0  0  0  0  0
   -4.8008  -21.4736   22.7596 C   0  0  0  0  0  0  0  0  0  0  0  0
   -4.2462  -17.7266   20.9814 H   0  0  0  0  0  0  0  0  0  0  0  0
   -5.5329  -18.9234   21.0674 H   0  0  0  0  0  0  0  0  0  0  0  0
   -4.7546  -18.3811   22.5424 H   0  0  0  0  0  0  0  0  0  0  0  0
   -3.8999  -20.4244   20.4951 H   0  0  0  0  0  0  0  0  0  0  0  0
   -2.9695  -18.3273   19.4467 H   0  0  0  0  0  0  0  0  0  0  0  0
   -1.3575  -17.5639   18.0156 H   0  0  0  0  0  0  0  0  0  0  0  0
   -0.5827  -19.1321   18.2406 H   0  0  0  0  0  0  0  0  0  0  0  0
    0.9526  -18.3010   19.8686 H   0  0  0  0  0  0  0  0  0  0  0  0
    0.0047  -16.8436   20.1510 H   0  0  0  0  0  0  0  0  0  0  0  0
    0.3929  -13.8307   14.3526 H   0  0  0  0  0  0  0  0  0  0  0  0
    4.0007  -14.9454   17.1354 H   0  0  0  0  0  0  0  0  0  0  0  0
   -2.0307  -20.1339   23.7798 H   0  0  0  0  0  0  0  0  0  0  0  0
   -5.3798  -23.2150   25.5949 H   0  0  0  0  0  0  0  0  0  0  0  0
   -7.3023  -23.9444   24.1799 H   0  0  0  0  0  0  0  0  0  0  0  0
   -7.6657  -23.0491   21.9376 H   0  0  0  0  0  0  0  0  0  0  0  0
   -6.0473  -21.4397   20.9694 H   0  0  0  0  0  0  0  0  0  0  0  0
  1  2  1  0
  2  3  1  0
  3  4  2  0
  3  5  1  0
  5  6  1  0
  6  7  1  0
  7  8  1  0
  8  9  2  0
  9 10  1  0
 10 11  1  0
 11 12  2  0
 11 13  1  0
 10 14  2  0
 14 15  1  0
  2 16  1  0
 16 17  1  0
 17 18  2  0
 18 19  1  0
 19 20  2  0
 20 21  1  0
 21 22  2  0
 22 23  1  0
 23 24  2  0
 15  8  1  0
 24 16  1  0
 24 19  1  0
  1 25  1  0
  1 26  1  0
  1 27  1  0
  2 28  1  0
  5 29  1  0
  6 30  1  0
  6 31  1  0
  7 32  1  0
  7 33  1  0
 13 34  1  0
 14 35  1  0
 17 36  1  0
 20 37  1  0
 21 38  1  0
 22 39  1  0
 23 40  1  0
M  END
>  <Energy>  (835) 
52.139460810370856

>  <compound_id>  (835) 
12726

>  <target_id>  (835) 
1

>  <reference_id>  (835) 
94

>  <inspiration_ids>  (835) 
[71, 94]

>  <energy_score>  (835) 
-38.575725867680376

>  <distance_score>  (835) 
15.064055883262725

>  <path>  (835) 
/opt/xchem-fragalysis-2/maxwin/BulkDock/SCRATCH/511015/C12726-P94/C12726-P94.minimised.mol

>  <scratch_subdir>  (835) 
/opt/xchem-fragalysis-2/maxwin/BulkDock/SCRATCH/511015/C12726-P94

>  <fragmenstein_runtime>  (835) 
32.76189303398132

>  <fragmenstein_outcome>  (835) 
too moved

>  <fragmenstein_mode>  (835) 
expansion

>  <fragmenstein_error>  (835) 


$$$$
C12727-P71
     RDKit          3D

 37 39  0  0  0  0  0  0  0  0999 V2000
   -0.2124  -19.7062   23.7575 O   0  0  0  0  0  0  0  0  0  0  0  0
   -0.9201  -19.0156   23.0803 C   0  0  0  0  0  0  0  0  0  0  0  0
   -2.4419  -18.9091   23.4192 C   0  0  0  0  0  0  0  0  0  0  0  0
   -2.9922  -19.7852   24.4801 N   0  0  0  0  0  0  0  0  0  0  0  0
   -2.7872  -19.6417   25.8330 C   0  0  0  0  0  0  0  0  0  0  0  0
   -3.5288  -20.4623   26.5475 N   0  0  0  0  0  0  0  0  0  0  0  0
   -4.2423  -21.1878   25.6334 C   0  0  0  0  0  0  0  0  0  0  0  0
   -5.1561  -22.2285   25.8439 C   0  0  0  0  0  0  0  0  0  0  0  0
   -5.7712  -22.8082   24.7282 C   0  0  0  0  0  0  0  0  0  0  0  0
   -5.5178  -22.3485   23.4416 C   0  0  0  0  0  0  0  0  0  0  0  0
   -4.6121  -21.3102   23.2183 C   0  0  0  0  0  0  0  0  0  0  0  0
   -3.9663  -20.7596   24.3326 C   0  0  0  0  0  0  0  0  0  0  0  0
   -0.6010  -18.1581   21.9233 N   0  0  0  0  0  0  0  0  0  0  0  0
    0.7089  -17.8067   21.2992 C   0  0  0  0  0  0  0  0  0  0  0  0
    0.6851  -17.7388   19.7508 C   0  0  0  0  0  0  0  0  0  0  0  0
    1.8991  -17.1291   19.0227 C   0  0  0  0  0  0  0  0  0  0  0  0
    1.8191  -16.1095   18.1792 N   0  0  0  0  0  0  0  0  0  0  0  0
    3.0551  -15.8956   17.5493 C   0  0  0  0  0  0  0  0  0  0  0  0
    3.1877  -14.7834   16.6227 C   0  0  0  0  0  0  0  0  0  0  0  0
    4.2095  -14.4556   16.0409 O   0  0  0  0  0  0  0  0  0  0  0  0
    2.0069  -14.1144   16.4914 O   0  0  0  0  0  0  0  0  0  0  0  0
    4.0559  -16.7721   17.8997 C   0  0  0  0  0  0  0  0  0  0  0  0
    3.4459  -17.8995   19.0460 S   0  0  0  0  0  0  0  0  0  0  0  0
   -2.6474  -17.8834   23.7483 H   0  0  0  0  0  0  0  0  0  0  0  0
   -3.0172  -19.1040   22.5090 H   0  0  0  0  0  0  0  0  0  0  0  0
   -2.0838  -18.9245   26.2374 H   0  0  0  0  0  0  0  0  0  0  0  0
   -5.3700  -22.5627   26.8506 H   0  0  0  0  0  0  0  0  0  0  0  0
   -6.4836  -23.6106   24.8513 H   0  0  0  0  0  0  0  0  0  0  0  0
   -6.0216  -22.8152   22.5979 H   0  0  0  0  0  0  0  0  0  0  0  0
   -4.3983  -20.9806   22.2078 H   0  0  0  0  0  0  0  0  0  0  0  0
   -1.4605  -17.7808   21.5422 H   0  0  0  0  0  0  0  0  0  0  0  0
    1.4499  -18.5326   21.6494 H   0  0  0  0  0  0  0  0  0  0  0  0
    0.9833  -16.8290   21.7101 H   0  0  0  0  0  0  0  0  0  0  0  0
    0.5176  -18.7486   19.3543 H   0  0  0  0  0  0  0  0  0  0  0  0
   -0.1936  -17.1533   19.4486 H   0  0  0  0  0  0  0  0  0  0  0  0
    1.3410  -14.6382   16.9991 H   0  0  0  0  0  0  0  0  0  0  0  0
    5.0835  -16.7975   17.5648 H   0  0  0  0  0  0  0  0  0  0  0  0
  1  2  2  0
  2  3  1  0
  3  4  1  0
  4  5  1  0
  5  6  2  0
  6  7  1  0
  7  8  2  0
  8  9  1  0
  9 10  2  0
 10 11  1  0
 11 12  2  0
  2 13  1  0
 13 14  1  0
 14 15  1  0
 15 16  1  0
 16 17  2  0
 17 18  1  0
 18 19  1  0
 19 20  2  0
 19 21  1  0
 18 22  2  0
 22 23  1  0
 12  4  1  0
 23 16  1  0
 12  7  1  0
  3 24  1  0
  3 25  1  0
  5 26  1  0
  8 27  1  0
  9 28  1  0
 10 29  1  0
 11 30  1  0
 13 31  1  0
 14 32  1  0
 14 33  1  0
 15 34  1  0
 15 35  1  0
 21 36  1  0
 22 37  1  0
M  END
>  <Energy>  (836) 
41.257795679217708

>  <compound_id>  (836) 
12727

>  <target_id>  (836) 
1

>  <reference_id>  (836) 
71

>  <inspiration_ids>  (836) 
[71, 94]

>  <energy_score>  (836) 
-63.999551730517055

>  <distance_score>  (836) 
14.790747671697607

>  <path>  (836) 
/opt/xchem-fragalysis-2/maxwin/BulkDock/SCRATCH/511015/C12727-P71/C12727-P71.minimised.mol

>  <scratch_subdir>  (836) 
/opt/xchem-fragalysis-2/maxwin/BulkDock/SCRATCH/511015/C12727-P71

>  <fragmenstein_runtime>  (836) 
21.15021300315857

>  <fragmenstein_outcome>  (836) 
too moved

>  <fragmenstein_mode>  (836) 
expansion

>  <fragmenstein_error>  (836) 


$$$$
C12727-P94
     RDKit          3D

 37 39  0  0  0  0  0  0  0  0999 V2000
   -3.0032  -17.2488   28.1254 O   0  0  0  0  0  0  0  0  0  0  0  0
   -2.1520  -16.8397   28.8635 C   0  0  0  0  0  0  0  0  0  0  0  0
   -1.9565  -17.5072   30.2319 C   0  0  0  0  0  0  0  0  0  0  0  0
   -2.9510  -18.5207   30.6278 N   0  0  0  0  0  0  0  0  0  0  0  0
   -2.6973  -19.8721   30.6535 C   0  0  0  0  0  0  0  0  0  0  0  0
   -3.4198  -20.4981   31.5547 N   0  0  0  0  0  0  0  0  0  0  0  0
   -4.2419  -19.5292   32.0802 C   0  0  0  0  0  0  0  0  0  0  0  0
   -5.1545  -19.6028   33.1398 C   0  0  0  0  0  0  0  0  0  0  0  0
   -5.9003  -18.4693   33.4791 C   0  0  0  0  0  0  0  0  0  0  0  0
   -5.7567  -17.2852   32.7592 C   0  0  0  0  0  0  0  0  0  0  0  0
   -4.8116  -17.1709   31.7339 C   0  0  0  0  0  0  0  0  0  0  0  0
   -4.0448  -18.3043   31.4411 C   0  0  0  0  0  0  0  0  0  0  0  0
   -1.2120  -15.7227   28.7119 N   0  0  0  0  0  0  0  0  0  0  0  0
   -1.0768  -14.5958   27.5448 C   0  0  0  0  0  0  0  0  0  0  0  0
    0.5755  -13.4543   26.8084 C   0  0  0  0  0  0  0  0  0  0  0  0
    1.2159  -11.5461   27.3632 C   0  0  0  0  0  0  0  0  0  0  0  0
    2.2981  -11.1937   28.1587 N   0  0  0  0  0  0  0  0  0  0  0  0
    1.9717  -10.9526   29.4983 C   0  0  0  0  0  0  0  0  0  0  0  0
    2.9382  -11.1275   30.5808 C   0  0  0  0  0  0  0  0  0  0  0  0
    4.1491  -11.0634   30.4159 O   0  0  0  0  0  0  0  0  0  0  0  0
    2.4005  -11.3679   31.8070 O   0  0  0  0  0  0  0  0  0  0  0  0
    0.7085  -10.4304   29.6176 C   0  0  0  0  0  0  0  0  0  0  0  0
    0.1574  -10.0485   28.0367 S   0  0  0  0  0  0  0  0  0  0  0  0
   -0.9766  -17.9986   30.2403 H   0  0  0  0  0  0  0  0  0  0  0  0
   -1.9649  -16.7404   31.0152 H   0  0  0  0  0  0  0  0  0  0  0  0
   -1.9248  -20.3263   30.0476 H   0  0  0  0  0  0  0  0  0  0  0  0
   -5.3084  -20.5272   33.6712 H   0  0  0  0  0  0  0  0  0  0  0  0
   -6.6417  -18.5408   34.2698 H   0  0  0  0  0  0  0  0  0  0  0  0
   -6.3804  -16.4315   33.0112 H   0  0  0  0  0  0  0  0  0  0  0  0
   -4.6756  -16.2362   31.2023 H   0  0  0  0  0  0  0  0  0  0  0  0
   -0.6871  -15.6109   29.5718 H   0  0  0  0  0  0  0  0  0  0  0  0
   -2.0771  -14.2297   28.0039 H   0  0  0  0  0  0  0  0  0  0  0  0
   -1.7609  -14.8953   26.6852 H   0  0  0  0  0  0  0  0  0  0  0  0
    1.5470  -13.9951   26.7571 H   0  0  0  0  0  0  0  0  0  0  0  0
    0.6504  -13.4140   25.7786 H   0  0  0  0  0  0  0  0  0  0  0  0
    1.4355  -11.5057   31.7849 H   0  0  0  0  0  0  0  0  0  0  0  0
    0.2071  -10.0370   30.4895 H   0  0  0  0  0  0  0  0  0  0  0  0
  1  2  2  0
  2  3  1  0
  3  4  1  0
  4  5  1  0
  5  6  2  0
  6  7  1  0
  7  8  2  0
  8  9  1  0
  9 10  2  0
 10 11  1  0
 11 12  2  0
  2 13  1  0
 13 14  1  0
 14 15  1  0
 15 16  1  0
 16 17  2  0
 17 18  1  0
 18 19  1  0
 19 20  2  0
 19 21  1  0
 18 22  2  0
 22 23  1  0
 12  4  1  0
 23 16  1  0
 12  7  1  0
  3 24  1  0
  3 25  1  0
  5 26  1  0
  8 27  1  0
  9 28  1  0
 10 29  1  0
 11 30  1  0
 13 31  1  0
 14 32  1  0
 14 33  1  0
 15 34  1  0
 15 35  1  0
 21 36  1  0
 22 37  1  0
M  END
>  <Energy>  (837) 
358.91432878732178

>  <compound_id>  (837) 
12727

>  <target_id>  (837) 
1

>  <reference_id>  (837) 
94

>  <inspiration_ids>  (837) 
[71, 94]

>  <energy_score>  (837) 
253.6569813775812

>  <distance_score>  (837) 
15.500905656436464

>  <path>  (837) 
/opt/xchem-fragalysis-2/maxwin/BulkDock/SCRATCH/511015/C12727-P94/C12727-P94.minimised.mol

>  <scratch_subdir>  (837) 
/opt/xchem-fragalysis-2/maxwin/BulkDock/SCRATCH/511015/C12727-P94

>  <fragmenstein_runtime>  (837) 
21.557783842086792

>  <fragmenstein_outcome>  (837) 
too moved

>  <fragmenstein_mode>  (837) 
expansion

>  <fragmenstein_error>  (837) 


$$$$
C12728-P71
     RDKit          3D

 43 45  0  0  0  0  0  0  0  0999 V2000
    0.5673  -17.2212   15.7715 C   0  0  0  0  0  0  0  0  0  0  0  0
    0.6010  -17.7275   17.2093 C   0  0  0  0  0  0  0  0  0  0  0  0
    0.8574  -16.6102   18.2530 C   0  0  0  0  0  0  0  0  0  0  0  0
    0.4361  -17.1455   19.6533 N   0  0  0  0  0  0  0  0  0  0  0  0
   -0.8673  -17.6734   20.1407 C   0  0  0  0  0  0  0  0  0  0  0  0
   -1.8946  -17.8899   19.5491 O   0  0  0  0  0  0  0  0  0  0  0  0
   -0.9368  -18.0777   21.7084 C   0  0  0  0  0  0  0  0  0  0  0  0
   -2.3761  -18.7277   22.1561 C   0  0  0  0  0  0  0  0  0  0  0  0
   -2.6856  -19.2084   23.5151 N   0  0  0  0  0  0  0  0  0  0  0  0
   -2.2434  -18.6657   24.6952 C   0  0  0  0  0  0  0  0  0  0  0  0
   -2.7470  -19.2624   25.7560 N   0  0  0  0  0  0  0  0  0  0  0  0
   -3.5781  -20.2359   25.2719 C   0  0  0  0  0  0  0  0  0  0  0  0
   -4.3466  -21.1795   25.9810 C   0  0  0  0  0  0  0  0  0  0  0  0
   -5.1249  -22.0908   25.2650 C   0  0  0  0  0  0  0  0  0  0  0  0
   -5.1683  -22.0369   23.8722 C   0  0  0  0  0  0  0  0  0  0  0  0
   -4.4158  -21.0933   23.1500 C   0  0  0  0  0  0  0  0  0  0  0  0
   -3.5971  -20.2102   23.8732 C   0  0  0  0  0  0  0  0  0  0  0  0
    2.3009  -15.8861   17.9941 C   0  0  0  0  0  0  0  0  0  0  0  0
    2.5322  -14.5901   17.6971 N   0  0  0  0  0  0  0  0  0  0  0  0
    3.9022  -14.3531   17.3768 C   0  0  0  0  0  0  0  0  0  0  0  0
    4.4843  -12.9836   17.1314 C   0  0  0  0  0  0  0  0  0  0  0  0
    4.6602  -15.5030   17.3360 C   0  0  0  0  0  0  0  0  0  0  0  0
    3.7187  -16.8707   17.7497 S   0  0  0  0  0  0  0  0  0  0  0  0
    1.5343  -16.8231   15.4525 H   0  0  0  0  0  0  0  0  0  0  0  0
   -0.1849  -16.4348   15.6520 H   0  0  0  0  0  0  0  0  0  0  0  0
    0.3075  -18.0406   15.0934 H   0  0  0  0  0  0  0  0  0  0  0  0
    1.3420  -18.5290   17.3065 H   0  0  0  0  0  0  0  0  0  0  0  0
   -0.3695  -18.1974   17.4077 H   0  0  0  0  0  0  0  0  0  0  0  0
    0.1080  -15.8369   18.0390 H   0  0  0  0  0  0  0  0  0  0  0  0
    1.0625  -17.0110   20.4502 H   0  0  0  0  0  0  0  0  0  0  0  0
   -0.1431  -18.8034   21.9111 H   0  0  0  0  0  0  0  0  0  0  0  0
   -0.7645  -17.1716   22.2974 H   0  0  0  0  0  0  0  0  0  0  0  0
   -3.1559  -17.9877   21.9354 H   0  0  0  0  0  0  0  0  0  0  0  0
   -2.5464  -19.5854   21.4939 H   0  0  0  0  0  0  0  0  0  0  0  0
   -1.5506  -17.8347   24.7259 H   0  0  0  0  0  0  0  0  0  0  0  0
   -4.3097  -21.1956   27.0645 H   0  0  0  0  0  0  0  0  0  0  0  0
   -5.7138  -22.8322   25.7943 H   0  0  0  0  0  0  0  0  0  0  0  0
   -5.7901  -22.7485   23.3316 H   0  0  0  0  0  0  0  0  0  0  0  0
   -4.4473  -21.0783   22.0651 H   0  0  0  0  0  0  0  0  0  0  0  0
    5.0345  -12.6593   18.0179 H   0  0  0  0  0  0  0  0  0  0  0  0
    3.7175  -12.2536   16.8799 H   0  0  0  0  0  0  0  0  0  0  0  0
    5.1864  -13.0208   16.2913 H   0  0  0  0  0  0  0  0  0  0  0  0
    5.7131  -15.6003   17.1158 H   0  0  0  0  0  0  0  0  0  0  0  0
  1  2  1  0
  2  3  1  0
  3  4  1  0
  4  5  1  0
  5  6  2  0
  5  7  1  0
  7  8  1  0
  8  9  1  0
  9 10  1  0
 10 11  2  0
 11 12  1  0
 12 13  2  0
 13 14  1  0
 14 15  2  0
 15 16  1  0
 16 17  2  0
  3 18  1  0
 18 19  2  0
 19 20  1  0
 20 21  1  0
 20 22  2  0
 22 23  1  0
 17  9  1  0
 23 18  1  0
 17 12  1  0
  1 24  1  0
  1 25  1  0
  1 26  1  0
  2 27  1  0
  2 28  1  0
  3 29  1  0
  4 30  1  0
  7 31  1  0
  7 32  1  0
  8 33  1  0
  8 34  1  0
 10 35  1  0
 13 36  1  0
 14 37  1  0
 15 38  1  0
 16 39  1  0
 21 40  1  0
 21 41  1  0
 21 42  1  0
 22 43  1  0
M  END
>  <Energy>  (838) 
40.939161048183387

>  <compound_id>  (838) 
12728

>  <target_id>  (838) 
1

>  <reference_id>  (838) 
71

>  <inspiration_ids>  (838) 
[71, 94]

>  <energy_score>  (838) 
-24.192776546450204

>  <distance_score>  (838) 
13.928471614114766

>  <path>  (838) 
/opt/xchem-fragalysis-2/maxwin/BulkDock/SCRATCH/511015/C12728-P71/C12728-P71.minimised.mol

>  <scratch_subdir>  (838) 
/opt/xchem-fragalysis-2/maxwin/BulkDock/SCRATCH/511015/C12728-P71

>  <fragmenstein_runtime>  (838) 
36.96826934814453

>  <fragmenstein_outcome>  (838) 
too moved

>  <fragmenstein_mode>  (838) 
expansion

>  <fragmenstein_error>  (838) 


$$$$
C12728-P94
     RDKit          3D

 43 45  0  0  0  0  0  0  0  0999 V2000
    5.9671  -14.9073   30.3585 C   0  0  0  0  0  0  0  0  0  0  0  0
    6.0314  -15.4552   28.9387 C   0  0  0  0  0  0  0  0  0  0  0  0
    5.1757  -14.7054   27.8948 C   0  0  0  0  0  0  0  0  0  0  0  0
    3.6796  -14.7061   28.2645 N   0  0  0  0  0  0  0  0  0  0  0  0
    2.8369  -15.7490   28.9354 C   0  0  0  0  0  0  0  0  0  0  0  0
    3.1422  -16.8077   29.4208 O   0  0  0  0  0  0  0  0  0  0  0  0
    1.2598  -15.4325   28.9428 C   0  0  0  0  0  0  0  0  0  0  0  0
    0.3101  -16.2299   29.9803 C   0  0  0  0  0  0  0  0  0  0  0  0
   -0.5679  -17.3480   29.5927 N   0  0  0  0  0  0  0  0  0  0  0  0
   -0.1160  -18.6262   29.3488 C   0  0  0  0  0  0  0  0  0  0  0  0
   -1.0810  -19.5206   29.3266 N   0  0  0  0  0  0  0  0  0  0  0  0
   -2.2261  -18.8235   29.6012 C   0  0  0  0  0  0  0  0  0  0  0  0
   -3.5366  -19.3075   29.7575 C   0  0  0  0  0  0  0  0  0  0  0  0
   -4.5584  -18.4065   30.0659 C   0  0  0  0  0  0  0  0  0  0  0  0
   -4.2847  -17.0489   30.1962 C   0  0  0  0  0  0  0  0  0  0  0  0
   -2.9807  -16.5476   30.0468 C   0  0  0  0  0  0  0  0  0  0  0  0
   -1.9520  -17.4581   29.7535 C   0  0  0  0  0  0  0  0  0  0  0  0
    5.9475  -13.3752   27.3719 C   0  0  0  0  0  0  0  0  0  0  0  0
    6.6037  -13.2629   26.2081 N   0  0  0  0  0  0  0  0  0  0  0  0
    7.2516  -12.0169   26.0565 C   0  0  0  0  0  0  0  0  0  0  0  0
    8.0001  -11.6688   24.7986 C   0  0  0  0  0  0  0  0  0  0  0  0
    7.0977  -11.1886   27.1466 C   0  0  0  0  0  0  0  0  0  0  0  0
    6.1449  -11.9556   28.3568 S   0  0  0  0  0  0  0  0  0  0  0  0
    4.9382  -14.8057   30.7139 H   0  0  0  0  0  0  0  0  0  0  0  0
    6.4867  -15.5897   31.0397 H   0  0  0  0  0  0  0  0  0  0  0  0
    6.4595  -13.9366   30.4431 H   0  0  0  0  0  0  0  0  0  0  0  0
    7.0799  -15.4750   28.6155 H   0  0  0  0  0  0  0  0  0  0  0  0
    5.7068  -16.5025   28.9702 H   0  0  0  0  0  0  0  0  0  0  0  0
    5.1796  -15.3415   26.9970 H   0  0  0  0  0  0  0  0  0  0  0  0
    3.0780  -13.9752   27.8987 H   0  0  0  0  0  0  0  0  0  0  0  0
    0.8568  -15.5769   27.9395 H   0  0  0  0  0  0  0  0  0  0  0  0
    1.1796  -14.3671   29.1928 H   0  0  0  0  0  0  0  0  0  0  0  0
    0.9277  -16.6111   30.8030 H   0  0  0  0  0  0  0  0  0  0  0  0
   -0.3590  -15.4798   30.4195 H   0  0  0  0  0  0  0  0  0  0  0  0
    0.9382  -18.8418   29.2212 H   0  0  0  0  0  0  0  0  0  0  0  0
   -3.7325  -20.3680   29.6676 H   0  0  0  0  0  0  0  0  0  0  0  0
   -5.5694  -18.7633   30.2333 H   0  0  0  0  0  0  0  0  0  0  0  0
   -5.0948  -16.3660   30.4437 H   0  0  0  0  0  0  0  0  0  0  0  0
   -2.7838  -15.4882   30.1700 H   0  0  0  0  0  0  0  0  0  0  0  0
    7.3352  -11.1543   24.1002 H   0  0  0  0  0  0  0  0  0  0  0  0
    8.3742  -12.5784   24.3193 H   0  0  0  0  0  0  0  0  0  0  0  0
    8.8526  -11.0195   25.0196 H   0  0  0  0  0  0  0  0  0  0  0  0
    7.4848  -10.1899   27.2918 H   0  0  0  0  0  0  0  0  0  0  0  0
  1  2  1  0
  2  3  1  0
  3  4  1  0
  4  5  1  0
  5  6  2  0
  5  7  1  0
  7  8  1  0
  8  9  1  0
  9 10  1  0
 10 11  2  0
 11 12  1  0
 12 13  2  0
 13 14  1  0
 14 15  2  0
 15 16  1  0
 16 17  2  0
  3 18  1  0
 18 19  2  0
 19 20  1  0
 20 21  1  0
 20 22  2  0
 22 23  1  0
 17  9  1  0
 23 18  1  0
 17 12  1  0
  1 24  1  0
  1 25  1  0
  1 26  1  0
  2 27  1  0
  2 28  1  0
  3 29  1  0
  4 30  1  0
  7 31  1  0
  7 32  1  0
  8 33  1  0
  8 34  1  0
 10 35  1  0
 13 36  1  0
 14 37  1  0
 15 38  1  0
 16 39  1  0
 21 40  1  0
 21 41  1  0
 21 42  1  0
 22 43  1  0
M  END
>  <Energy>  (839) 
39.32428299509241

>  <compound_id>  (839) 
12728

>  <target_id>  (839) 
1

>  <reference_id>  (839) 
94

>  <inspiration_ids>  (839) 
[71, 94]

>  <energy_score>  (839) 
-25.807654599543127

>  <distance_score>  (839) 
13.835417697674687

>  <path>  (839) 
/opt/xchem-fragalysis-2/maxwin/BulkDock/SCRATCH/511015/C12728-P94/C12728-P94.minimised.mol

>  <scratch_subdir>  (839) 
/opt/xchem-fragalysis-2/maxwin/BulkDock/SCRATCH/511015/C12728-P94

>  <fragmenstein_runtime>  (839) 
43.778706073760986

>  <fragmenstein_outcome>  (839) 
too moved

>  <fragmenstein_mode>  (839) 
expansion

>  <fragmenstein_error>  (839) 


$$$$
C12732-P71
     RDKit          3D

 37 39  0  0  0  0  0  0  0  0999 V2000
   -5.3289  -19.6145   26.5513 C   0  0  0  0  0  0  0  0  0  0  0  0
   -5.3614  -19.0065   25.2976 C   0  0  0  0  0  0  0  0  0  0  0  0
   -4.7458  -17.7680   25.0628 C   0  0  0  0  0  0  0  0  0  0  0  0
   -4.0113  -17.1918   26.1070 C   0  0  0  0  0  0  0  0  0  0  0  0
   -4.0690  -17.7404   27.3941 C   0  0  0  0  0  0  0  0  0  0  0  0
   -4.7192  -18.9646   27.6236 C   0  0  0  0  0  0  0  0  0  0  0  0
   -3.4469  -16.9252   28.2907 N   0  0  0  0  0  0  0  0  0  0  0  0
   -2.9919  -15.9162   27.5819 C   0  0  0  0  0  0  0  0  0  0  0  0
   -3.1339  -16.1061   26.2190 N   0  0  0  0  0  0  0  0  0  0  0  0
   -2.5508  -15.2451   25.1425 C   0  0  0  0  0  0  0  0  0  0  0  0
   -0.8571  -14.4771   24.5321 C   0  0  0  0  0  0  0  0  0  0  0  0
    1.0412  -14.1874   23.8324 C   0  0  0  0  0  0  0  0  0  0  0  0
    2.8689  -13.2237   23.2786 C   0  0  0  0  0  0  0  0  0  0  0  0
    4.0316  -12.5263   21.6323 C   0  0  0  0  0  0  0  0  0  0  0  0
    6.0555  -12.1095   20.2564 S   0  0  0  0  0  0  0  0  0  0  0  0
    7.7666  -10.8277   19.2283 C   0  0  0  0  0  0  0  0  0  0  0  0
    7.8219  -10.4401   17.8994 N   0  0  0  0  0  0  0  0  0  0  0  0
    8.7692  -10.4052   16.6644 C   0  0  0  0  0  0  0  0  0  0  0  0
    9.8712  -11.1061   16.7577 C   0  0  0  0  0  0  0  0  0  0  0  0
    9.8353  -11.3603   18.3522 S   0  0  0  0  0  0  0  0  0  0  0  0
   -5.7879  -20.5861   26.6994 H   0  0  0  0  0  0  0  0  0  0  0  0
   -5.8597  -19.5012   24.4673 H   0  0  0  0  0  0  0  0  0  0  0  0
   -4.8157  -17.3009   24.0868 H   0  0  0  0  0  0  0  0  0  0  0  0
   -4.7121  -19.3788   28.6258 H   0  0  0  0  0  0  0  0  0  0  0  0
   -2.4896  -15.0522   27.9921 H   0  0  0  0  0  0  0  0  0  0  0  0
   -3.1426  -15.4774   24.2525 H   0  0  0  0  0  0  0  0  0  0  0  0
   -3.0398  -14.3093   25.4846 H   0  0  0  0  0  0  0  0  0  0  0  0
   -1.1963  -14.7362   23.5322 H   0  0  0  0  0  0  0  0  0  0  0  0
   -1.1422  -13.6581   25.1916 H   0  0  0  0  0  0  0  0  0  0  0  0
    1.2207  -13.5714   24.7356 H   0  0  0  0  0  0  0  0  0  0  0  0
    0.3481  -14.1935   22.9409 H   0  0  0  0  0  0  0  0  0  0  0  0
    3.4767  -13.7223   24.0225 H   0  0  0  0  0  0  0  0  0  0  0  0
    2.5742  -12.2342   23.6385 H   0  0  0  0  0  0  0  0  0  0  0  0
    4.1182  -11.5147   22.0136 H   0  0  0  0  0  0  0  0  0  0  0  0
    3.6049  -13.0670   20.8194 H   0  0  0  0  0  0  0  0  0  0  0  0
    8.4587   -9.9774   15.7221 H   0  0  0  0  0  0  0  0  0  0  0  0
   10.6575  -11.3223   16.0487 H   0  0  0  0  0  0  0  0  0  0  0  0
  1  2  2  0
  2  3  1  0
  3  4  2  0
  4  5  1  0
  5  6  2  0
  5  7  1  0
  7  8  2  0
  8  9  1  0
  9 10  1  0
 10 11  1  0
 11 12  1  0
 12 13  1  0
 13 14  1  0
 14 15  1  0
 15 16  1  0
 16 17  2  0
 17 18  1  0
 18 19  2  0
 19 20  1  0
  6  1  1  0
 20 16  1  0
  9  4  1  0
  1 21  1  0
  2 22  1  0
  3 23  1  0
  6 24  1  0
  8 25  1  0
 10 26  1  0
 10 27  1  0
 11 28  1  0
 11 29  1  0
 12 30  1  0
 12 31  1  0
 13 32  1  0
 13 33  1  0
 14 34  1  0
 14 35  1  0
 18 36  1  0
 19 37  1  0
M  END
>  <Energy>  (840) 
998.63446321467143

>  <compound_id>  (840) 
12732

>  <target_id>  (840) 
1

>  <reference_id>  (840) 
71

>  <inspiration_ids>  (840) 
[71, 94]

>  <energy_score>  (840) 
905.9407441944584

>  <distance_score>  (840) 
11.44778169699964

>  <path>  (840) 
/opt/xchem-fragalysis-2/maxwin/BulkDock/SCRATCH/511015/C12732-P71/C12732-P71.minimised.mol

>  <scratch_subdir>  (840) 
/opt/xchem-fragalysis-2/maxwin/BulkDock/SCRATCH/511015/C12732-P71

>  <fragmenstein_runtime>  (840) 
17.04209017753601

>  <fragmenstein_outcome>  (840) 
too moved

>  <fragmenstein_mode>  (840) 
expansion

>  <fragmenstein_error>  (840) 


$$$$
C12732-P94
     RDKit          3D

 37 39  0  0  0  0  0  0  0  0999 V2000
   -5.8391  -18.5986   33.7960 C   0  0  0  0  0  0  0  0  0  0  0  0
   -6.1798  -17.4832   33.0275 C   0  0  0  0  0  0  0  0  0  0  0  0
   -5.6875  -17.3131   31.7265 C   0  0  0  0  0  0  0  0  0  0  0  0
   -4.8357  -18.3089   31.2350 C   0  0  0  0  0  0  0  0  0  0  0  0
   -4.4840  -19.4338   31.9847 C   0  0  0  0  0  0  0  0  0  0  0  0
   -4.9833  -19.5795   33.2861 C   0  0  0  0  0  0  0  0  0  0  0  0
   -3.6304  -20.2543   31.2840 N   0  0  0  0  0  0  0  0  0  0  0  0
   -3.4820  -19.6624   30.1217 C   0  0  0  0  0  0  0  0  0  0  0  0
   -4.1643  -18.4761   30.0494 N   0  0  0  0  0  0  0  0  0  0  0  0
   -4.1552  -17.5819   28.9016 C   0  0  0  0  0  0  0  0  0  0  0  0
   -3.1065  -16.4316   28.9839 C   0  0  0  0  0  0  0  0  0  0  0  0
   -2.2216  -16.2217   27.6689 C   0  0  0  0  0  0  0  0  0  0  0  0
   -1.0892  -14.8788   27.7469 C   0  0  0  0  0  0  0  0  0  0  0  0
    0.4561  -13.8141   26.7997 C   0  0  0  0  0  0  0  0  0  0  0  0
    1.5342  -13.3011   25.6135 S   0  0  0  0  0  0  0  0  0  0  0  0
    2.5811  -13.3060   24.1298 C   0  0  0  0  0  0  0  0  0  0  0  0
    3.0524  -14.0953   23.1823 N   0  0  0  0  0  0  0  0  0  0  0  0
    3.4404  -13.0575   21.8780 C   0  0  0  0  0  0  0  0  0  0  0  0
    3.7664  -11.9135   22.4397 C   0  0  0  0  0  0  0  0  0  0  0  0
    2.3773  -11.9807   23.3003 S   0  0  0  0  0  0  0  0  0  0  0  0
   -6.2520  -18.7173   34.7935 H   0  0  0  0  0  0  0  0  0  0  0  0
   -6.8562  -16.7405   33.4427 H   0  0  0  0  0  0  0  0  0  0  0  0
   -5.9624  -16.4489   31.1347 H   0  0  0  0  0  0  0  0  0  0  0  0
   -4.7076  -20.4386   33.8791 H   0  0  0  0  0  0  0  0  0  0  0  0
   -2.8815  -20.0377   29.3049 H   0  0  0  0  0  0  0  0  0  0  0  0
   -5.1643  -17.1677   28.7973 H   0  0  0  0  0  0  0  0  0  0  0  0
   -3.9704  -18.2023   28.0167 H   0  0  0  0  0  0  0  0  0  0  0  0
   -2.4166  -16.6039   29.8190 H   0  0  0  0  0  0  0  0  0  0  0  0
   -3.6335  -15.4944   29.1987 H   0  0  0  0  0  0  0  0  0  0  0  0
   -2.9120  -16.0410   26.8340 H   0  0  0  0  0  0  0  0  0  0  0  0
   -1.6879  -17.1750   27.5546 H   0  0  0  0  0  0  0  0  0  0  0  0
   -2.0104  -14.3310   28.0228 H   0  0  0  0  0  0  0  0  0  0  0  0
   -0.6188  -15.3146   28.6653 H   0  0  0  0  0  0  0  0  0  0  0  0
    0.8800  -12.8833   26.9869 H   0  0  0  0  0  0  0  0  0  0  0  0
    1.2658  -14.5335   26.7621 H   0  0  0  0  0  0  0  0  0  0  0  0
    3.7283  -13.3852   20.9135 H   0  0  0  0  0  0  0  0  0  0  0  0
    4.4429  -11.1381   22.1521 H   0  0  0  0  0  0  0  0  0  0  0  0
  1  2  2  0
  2  3  1  0
  3  4  2  0
  4  5  1  0
  5  6  2  0
  5  7  1  0
  7  8  2  0
  8  9  1  0
  9 10  1  0
 10 11  1  0
 11 12  1  0
 12 13  1  0
 13 14  1  0
 14 15  1  0
 15 16  1  0
 16 17  2  0
 17 18  1  0
 18 19  2  0
 19 20  1  0
  6  1  1  0
 20 16  1  0
  9  4  1  0
  1 21  1  0
  2 22  1  0
  3 23  1  0
  6 24  1  0
  8 25  1  0
 10 26  1  0
 10 27  1  0
 11 28  1  0
 11 29  1  0
 12 30  1  0
 12 31  1  0
 13 32  1  0
 13 33  1  0
 14 34  1  0
 14 35  1  0
 18 36  1  0
 19 37  1  0
M  END
>  <Energy>  (841) 
417.70932509982447

>  <compound_id>  (841) 
12732

>  <target_id>  (841) 
1

>  <reference_id>  (841) 
94

>  <inspiration_ids>  (841) 
[71, 94]

>  <energy_score>  (841) 
325.0156060796092

>  <distance_score>  (841) 
12.436749175549028

>  <path>  (841) 
/opt/xchem-fragalysis-2/maxwin/BulkDock/SCRATCH/511015/C12732-P94/C12732-P94.minimised.mol

>  <scratch_subdir>  (841) 
/opt/xchem-fragalysis-2/maxwin/BulkDock/SCRATCH/511015/C12732-P94

>  <fragmenstein_runtime>  (841) 
21.47550654411316

>  <fragmenstein_outcome>  (841) 
too moved

>  <fragmenstein_mode>  (841) 
expansion

>  <fragmenstein_error>  (841) 


$$$$
C12733-P71
     RDKit          3D

 43 45  0  0  0  0  0  0  0  0999 V2000
    7.3429   -6.2441   29.4222 C   0  0  0  0  0  0  0  0  0  0  0  0
    6.3787   -7.2710   29.1638 O   0  0  0  0  0  0  0  0  0  0  0  0
    6.8837   -8.3700   28.5364 C   0  0  0  0  0  0  0  0  0  0  0  0
    8.0580   -8.4699   28.1982 O   0  0  0  0  0  0  0  0  0  0  0  0
    5.9065   -9.4744   28.3978 C   0  0  0  0  0  0  0  0  0  0  0  0
    6.4302  -10.7173   28.2947 C   0  0  0  0  0  0  0  0  0  0  0  0
    5.2442  -11.8719   28.3349 S   0  0  0  0  0  0  0  0  0  0  0  0
    3.6647  -10.4749   28.5891 C   0  0  0  0  0  0  0  0  0  0  0  0
    1.5878  -10.9234   27.8384 S   0  0  0  0  0  0  0  0  0  0  0  0
    0.8646  -13.1277   26.8916 C   0  0  0  0  0  0  0  0  0  0  0  0
   -0.7600  -14.3514   27.5206 C   0  0  0  0  0  0  0  0  0  0  0  0
   -2.3680  -14.7469   28.3956 C   0  0  0  0  0  0  0  0  0  0  0  0
   -2.8824  -16.2401   28.1838 C   0  0  0  0  0  0  0  0  0  0  0  0
   -4.0496  -16.7561   29.0874 C   0  0  0  0  0  0  0  0  0  0  0  0
   -4.1174  -18.2206   29.1054 N   0  0  0  0  0  0  0  0  0  0  0  0
   -3.6384  -19.0220   30.1113 C   0  0  0  0  0  0  0  0  0  0  0  0
   -3.5041  -20.2720   29.7224 N   0  0  0  0  0  0  0  0  0  0  0  0
   -4.0114  -20.3035   28.4487 C   0  0  0  0  0  0  0  0  0  0  0  0
   -4.1411  -21.3931   27.5686 C   0  0  0  0  0  0  0  0  0  0  0  0
   -4.7492  -21.1893   26.3289 C   0  0  0  0  0  0  0  0  0  0  0  0
   -5.1915  -19.9163   25.9635 C   0  0  0  0  0  0  0  0  0  0  0  0
   -5.0841  -18.8190   26.8256 C   0  0  0  0  0  0  0  0  0  0  0  0
   -4.4745  -19.0451   28.0616 C   0  0  0  0  0  0  0  0  0  0  0  0
    4.4391   -9.4159   28.2673 N   0  0  0  0  0  0  0  0  0  0  0  0
    6.8087   -5.3717   29.8083 H   0  0  0  0  0  0  0  0  0  0  0  0
    8.0545   -6.5827   30.1812 H   0  0  0  0  0  0  0  0  0  0  0  0
    7.8636   -5.9527   28.5051 H   0  0  0  0  0  0  0  0  0  0  0  0
    7.4746  -11.0003   28.2529 H   0  0  0  0  0  0  0  0  0  0  0  0
    1.7980  -13.7386   26.9060 H   0  0  0  0  0  0  0  0  0  0  0  0
    1.0067  -13.0542   25.8548 H   0  0  0  0  0  0  0  0  0  0  0  0
   -0.4308  -15.0708   28.3096 H   0  0  0  0  0  0  0  0  0  0  0  0
   -1.5245  -14.4656   26.6654 H   0  0  0  0  0  0  0  0  0  0  0  0
   -2.2534  -14.6834   29.4850 H   0  0  0  0  0  0  0  0  0  0  0  0
   -3.1417  -14.0371   28.0878 H   0  0  0  0  0  0  0  0  0  0  0  0
   -2.0171  -16.8962   28.3423 H   0  0  0  0  0  0  0  0  0  0  0  0
   -3.1743  -16.3551   27.1340 H   0  0  0  0  0  0  0  0  0  0  0  0
   -3.9050  -16.4254   30.1215 H   0  0  0  0  0  0  0  0  0  0  0  0
   -5.0161  -16.3818   28.7349 H   0  0  0  0  0  0  0  0  0  0  0  0
   -3.3536  -18.6343   31.0806 H   0  0  0  0  0  0  0  0  0  0  0  0
   -3.7737  -22.3697   27.8616 H   0  0  0  0  0  0  0  0  0  0  0  0
   -4.8483  -22.0217   25.6361 H   0  0  0  0  0  0  0  0  0  0  0  0
   -5.6026  -19.7617   24.9683 H   0  0  0  0  0  0  0  0  0  0  0  0
   -5.4178  -17.8322   26.5252 H   0  0  0  0  0  0  0  0  0  0  0  0
  1  2  1  0
  2  3  1  0
  3  4  2  0
  3  5  1  0
  5  6  2  0
  6  7  1  0
  7  8  1  0
  8  9  1  0
  9 10  1  0
 10 11  1  0
 11 12  1  0
 12 13  1  0
 13 14  1  0
 14 15  1  0
 15 16  1  0
 16 17  2  0
 17 18  1  0
 18 19  2  0
 19 20  1  0
 20 21  2  0
 21 22  1  0
 22 23  2  0
  8 24  2  0
 24  5  1  0
 23 15  1  0
 23 18  1  0
  1 25  1  0
  1 26  1  0
  1 27  1  0
  6 28  1  0
 10 29  1  0
 10 30  1  0
 11 31  1  0
 11 32  1  0
 12 33  1  0
 12 34  1  0
 13 35  1  0
 13 36  1  0
 14 37  1  0
 14 38  1  0
 16 39  1  0
 19 40  1  0
 20 41  1  0
 21 42  1  0
 22 43  1  0
M  END
>  <Energy>  (842) 
458.55994489633775

>  <compound_id>  (842) 
12733

>  <target_id>  (842) 
1

>  <reference_id>  (842) 
71

>  <inspiration_ids>  (842) 
[71, 94]

>  <energy_score>  (842) 
324.20605141475903

>  <distance_score>  (842) 
13.433885951774792

>  <path>  (842) 
/opt/xchem-fragalysis-2/maxwin/BulkDock/SCRATCH/511015/C12733-P71/C12733-P71.minimised.mol

>  <scratch_subdir>  (842) 
/opt/xchem-fragalysis-2/maxwin/BulkDock/SCRATCH/511015/C12733-P71

>  <fragmenstein_runtime>  (842) 
29.49256181716919

>  <fragmenstein_outcome>  (842) 
too moved

>  <fragmenstein_mode>  (842) 
expansion

>  <fragmenstein_error>  (842) 


$$$$
C12733-P94
     RDKit          3D

 43 45  0  0  0  0  0  0  0  0999 V2000
    9.0917   -9.9661   27.6450 C   0  0  0  0  0  0  0  0  0  0  0  0
    8.5912   -9.2394   26.5231 O   0  0  0  0  0  0  0  0  0  0  0  0
    7.2297   -9.1102   26.5029 C   0  0  0  0  0  0  0  0  0  0  0  0
    6.4884   -9.5306   27.3893 O   0  0  0  0  0  0  0  0  0  0  0  0
    6.7453   -8.3798   25.3285 C   0  0  0  0  0  0  0  0  0  0  0  0
    7.5229   -7.6015   24.5084 C   0  0  0  0  0  0  0  0  0  0  0  0
    6.5758   -6.7461   23.3507 S   0  0  0  0  0  0  0  0  0  0  0  0
    4.8269   -7.7710   23.8457 C   0  0  0  0  0  0  0  0  0  0  0  0
    2.8580   -8.6817   22.9452 S   0  0  0  0  0  0  0  0  0  0  0  0
    2.6716  -11.3427   23.2424 C   0  0  0  0  0  0  0  0  0  0  0  0
    1.8908  -12.8441   24.5307 C   0  0  0  0  0  0  0  0  0  0  0  0
    0.8372  -13.5443   26.2486 C   0  0  0  0  0  0  0  0  0  0  0  0
   -0.7650  -14.5345   27.3740 C   0  0  0  0  0  0  0  0  0  0  0  0
   -1.0217  -15.9097   28.6675 C   0  0  0  0  0  0  0  0  0  0  0  0
   -1.9432  -17.0354   28.3618 N   0  0  0  0  0  0  0  0  0  0  0  0
   -1.5062  -18.3087   28.0599 C   0  0  0  0  0  0  0  0  0  0  0  0
   -2.4875  -19.1414   27.7992 N   0  0  0  0  0  0  0  0  0  0  0  0
   -3.6255  -18.4178   28.0216 C   0  0  0  0  0  0  0  0  0  0  0  0
   -4.9589  -18.8245   27.8645 C   0  0  0  0  0  0  0  0  0  0  0  0
   -5.9829  -17.9568   28.2440 C   0  0  0  0  0  0  0  0  0  0  0  0
   -5.6752  -16.6891   28.7342 C   0  0  0  0  0  0  0  0  0  0  0  0
   -4.3459  -16.2353   28.8281 C   0  0  0  0  0  0  0  0  0  0  0  0
   -3.3260  -17.1187   28.4488 C   0  0  0  0  0  0  0  0  0  0  0  0
    5.3483   -8.4015   24.9969 N   0  0  0  0  0  0  0  0  0  0  0  0
   10.1785  -10.0355   27.5463 H   0  0  0  0  0  0  0  0  0  0  0  0
    8.8615   -9.4383   28.5758 H   0  0  0  0  0  0  0  0  0  0  0  0
    8.6805  -10.9804   27.6613 H   0  0  0  0  0  0  0  0  0  0  0  0
    8.5865   -7.4232   24.5626 H   0  0  0  0  0  0  0  0  0  0  0  0
    1.6957  -11.6382   22.7666 H   0  0  0  0  0  0  0  0  0  0  0  0
    2.5952  -11.3145   24.2417 H   0  0  0  0  0  0  0  0  0  0  0  0
    2.8426  -13.3901   24.5265 H   0  0  0  0  0  0  0  0  0  0  0  0
    1.6196  -11.9985   25.1656 H   0  0  0  0  0  0  0  0  0  0  0  0
    1.6863  -14.0988   26.6114 H   0  0  0  0  0  0  0  0  0  0  0  0
    1.1206  -12.6274   26.7177 H   0  0  0  0  0  0  0  0  0  0  0  0
   -1.7932  -14.3270   27.8890 H   0  0  0  0  0  0  0  0  0  0  0  0
   -1.6311  -14.7309   26.5661 H   0  0  0  0  0  0  0  0  0  0  0  0
   -0.0610  -16.3291   29.0042 H   0  0  0  0  0  0  0  0  0  0  0  0
   -1.4710  -15.4662   29.5665 H   0  0  0  0  0  0  0  0  0  0  0  0
   -0.4533  -18.5551   28.0143 H   0  0  0  0  0  0  0  0  0  0  0  0
   -5.1559  -19.8079   27.4634 H   0  0  0  0  0  0  0  0  0  0  0  0
   -7.0181  -18.2714   28.1770 H   0  0  0  0  0  0  0  0  0  0  0  0
   -6.4802  -16.0252   29.0429 H   0  0  0  0  0  0  0  0  0  0  0  0
   -4.1245  -15.2341   29.1846 H   0  0  0  0  0  0  0  0  0  0  0  0
  1  2  1  0
  2  3  1  0
  3  4  2  0
  3  5  1  0
  5  6  2  0
  6  7  1  0
  7  8  1  0
  8  9  1  0
  9 10  1  0
 10 11  1  0
 11 12  1  0
 12 13  1  0
 13 14  1  0
 14 15  1  0
 15 16  1  0
 16 17  2  0
 17 18  1  0
 18 19  2  0
 19 20  1  0
 20 21  2  0
 21 22  1  0
 22 23  2  0
  8 24  2  0
 24  5  1  0
 23 15  1  0
 23 18  1  0
  1 25  1  0
  1 26  1  0
  1 27  1  0
  6 28  1  0
 10 29  1  0
 10 30  1  0
 11 31  1  0
 11 32  1  0
 12 33  1  0
 12 34  1  0
 13 35  1  0
 13 36  1  0
 14 37  1  0
 14 38  1  0
 16 39  1  0
 19 40  1  0
 20 41  1  0
 21 42  1  0
 22 43  1  0
M  END
>  <Energy>  (843) 
982.1452073949165

>  <compound_id>  (843) 
12733

>  <target_id>  (843) 
1

>  <reference_id>  (843) 
94

>  <inspiration_ids>  (843) 
[71, 94]

>  <energy_score>  (843) 
847.7913139133484

>  <distance_score>  (843) 
12.905889070336501

>  <path>  (843) 
/opt/xchem-fragalysis-2/maxwin/BulkDock/SCRATCH/511015/C12733-P94/C12733-P94.minimised.mol

>  <scratch_subdir>  (843) 
/opt/xchem-fragalysis-2/maxwin/BulkDock/SCRATCH/511015/C12733-P94

>  <fragmenstein_runtime>  (843) 
28.69889521598816

>  <fragmenstein_outcome>  (843) 
too moved

>  <fragmenstein_mode>  (843) 
expansion

>  <fragmenstein_error>  (843) 


$$$$
C12738-P71
     RDKit          3D

 34 36  0  0  0  0  0  0  0  0999 V2000
   -1.1724  -10.0223   21.4707 C   0  0  0  0  0  0  0  0  0  0  0  0
    0.2498  -10.3355   21.8320 C   0  0  0  0  0  0  0  0  0  0  0  0
    1.0191   -9.4711   21.3376 O   0  0  0  0  0  0  0  0  0  0  0  0
    0.7801  -11.6905   22.8953 C   0  0  0  0  0  0  0  0  0  0  0  0
    2.1476  -12.0916   23.5839 C   0  0  0  0  0  0  0  0  0  0  0  0
    2.1643  -14.0481   24.3369 S   0  0  0  0  0  0  0  0  0  0  0  0
    0.4406  -14.4537   23.8528 C   0  0  0  0  0  0  0  0  0  0  0  0
   -0.1637  -15.6415   24.3530 N   0  0  0  0  0  0  0  0  0  0  0  0
   -1.6003  -15.7845   24.8945 C   0  0  0  0  0  0  0  0  0  0  0  0
   -1.9007  -17.1271   25.7045 C   0  0  0  0  0  0  0  0  0  0  0  0
   -3.2864  -17.4632   26.0636 N   0  0  0  0  0  0  0  0  0  0  0  0
   -4.2556  -17.8632   25.1722 C   0  0  0  0  0  0  0  0  0  0  0  0
   -5.3888  -18.1877   25.7574 N   0  0  0  0  0  0  0  0  0  0  0  0
   -5.1511  -18.0378   27.0967 C   0  0  0  0  0  0  0  0  0  0  0  0
   -6.0266  -18.2149   28.1770 C   0  0  0  0  0  0  0  0  0  0  0  0
   -5.5383  -18.0533   29.4741 C   0  0  0  0  0  0  0  0  0  0  0  0
   -4.2037  -17.7347   29.6914 C   0  0  0  0  0  0  0  0  0  0  0  0
   -3.3242  -17.5116   28.6247 C   0  0  0  0  0  0  0  0  0  0  0  0
   -3.8283  -17.6467   27.3261 C   0  0  0  0  0  0  0  0  0  0  0  0
    0.0233  -13.4036   23.0142 N   0  0  0  0  0  0  0  0  0  0  0  0
   -1.6524   -9.4504   22.2640 H   0  0  0  0  0  0  0  0  0  0  0  0
   -1.2155   -9.3466   20.6093 H   0  0  0  0  0  0  0  0  0  0  0  0
   -1.7303  -10.9140   21.1841 H   0  0  0  0  0  0  0  0  0  0  0  0
    3.0951  -12.0150   23.0940 H   0  0  0  0  0  0  0  0  0  0  0  0
    0.4917  -16.0956   24.9854 H   0  0  0  0  0  0  0  0  0  0  0  0
   -2.2741  -15.7589   24.0332 H   0  0  0  0  0  0  0  0  0  0  0  0
   -1.8088  -14.9369   25.5553 H   0  0  0  0  0  0  0  0  0  0  0  0
   -1.3118  -17.1130   26.6279 H   0  0  0  0  0  0  0  0  0  0  0  0
   -1.5355  -17.9766   25.1133 H   0  0  0  0  0  0  0  0  0  0  0  0
   -4.0766  -17.8923   24.1047 H   0  0  0  0  0  0  0  0  0  0  0  0
   -7.0627  -18.4712   28.0123 H   0  0  0  0  0  0  0  0  0  0  0  0
   -6.1946  -18.1958   30.3289 H   0  0  0  0  0  0  0  0  0  0  0  0
   -3.8431  -17.6375   30.7140 H   0  0  0  0  0  0  0  0  0  0  0  0
   -2.2938  -17.2313   28.8154 H   0  0  0  0  0  0  0  0  0  0  0  0
  1  2  1  0
  2  3  2  0
  2  4  1  0
  4  5  2  0
  5  6  1  0
  6  7  1  0
  7  8  1  0
  8  9  1  0
  9 10  1  0
 10 11  1  0
 11 12  1  0
 12 13  2  0
 13 14  1  0
 14 15  2  0
 15 16  1  0
 16 17  2  0
 17 18  1  0
 18 19  2  0
  7 20  2  0
 20  4  1  0
 19 11  1  0
 19 14  1  0
  1 21  1  0
  1 22  1  0
  1 23  1  0
  5 24  1  0
  8 25  1  0
  9 26  1  0
  9 27  1  0
 10 28  1  0
 10 29  1  0
 12 30  1  0
 15 31  1  0
 16 32  1  0
 17 33  1  0
 18 34  1  0
M  END
>  <Energy>  (844) 
199.75832846491443

>  <compound_id>  (844) 
12738

>  <target_id>  (844) 
1

>  <reference_id>  (844) 
71

>  <inspiration_ids>  (844) 
[71, 94]

>  <energy_score>  (844) 
104.95109361722012

>  <distance_score>  (844) 
14.973429773163033

>  <path>  (844) 
/opt/xchem-fragalysis-2/maxwin/BulkDock/SCRATCH/511015/C12738-P71/C12738-P71.minimised.mol

>  <scratch_subdir>  (844) 
/opt/xchem-fragalysis-2/maxwin/BulkDock/SCRATCH/511015/C12738-P71

>  <fragmenstein_runtime>  (844) 
10.536797285079956

>  <fragmenstein_outcome>  (844) 
too moved

>  <fragmenstein_mode>  (844) 
expansion

>  <fragmenstein_error>  (844) 


$$$$
C12738-P94
     RDKit          3D

 34 36  0  0  0  0  0  0  0  0999 V2000
   -0.2425   -8.9478   21.7104 C   0  0  0  0  0  0  0  0  0  0  0  0
   -1.1707   -8.9730   20.5576 C   0  0  0  0  0  0  0  0  0  0  0  0
   -0.8143   -8.4610   19.4850 O   0  0  0  0  0  0  0  0  0  0  0  0
   -2.5143   -9.6177   20.7287 C   0  0  0  0  0  0  0  0  0  0  0  0
   -3.3569   -9.6906   19.6456 C   0  0  0  0  0  0  0  0  0  0  0  0
   -4.7989  -10.4983   20.0413 S   0  0  0  0  0  0  0  0  0  0  0  0
   -4.2897  -10.8089   21.7027 C   0  0  0  0  0  0  0  0  0  0  0  0
   -5.1689  -11.6705   22.4306 N   0  0  0  0  0  0  0  0  0  0  0  0
   -5.3114  -12.1889   23.8811 C   0  0  0  0  0  0  0  0  0  0  0  0
   -5.9587  -13.6861   23.9945 C   0  0  0  0  0  0  0  0  0  0  0  0
   -6.3850  -14.3031   25.2664 N   0  0  0  0  0  0  0  0  0  0  0  0
   -7.2671  -13.7477   26.1647 C   0  0  0  0  0  0  0  0  0  0  0  0
   -7.6244  -14.5800   27.1203 N   0  0  0  0  0  0  0  0  0  0  0  0
   -6.9495  -15.7411   26.8674 C   0  0  0  0  0  0  0  0  0  0  0  0
   -6.9308  -16.9344   27.6149 C   0  0  0  0  0  0  0  0  0  0  0  0
   -6.1539  -18.0024   27.1643 C   0  0  0  0  0  0  0  0  0  0  0  0
   -5.4576  -17.9021   25.9613 C   0  0  0  0  0  0  0  0  0  0  0  0
   -5.4735  -16.7199   25.1973 C   0  0  0  0  0  0  0  0  0  0  0  0
   -6.2025  -15.6254   25.6885 C   0  0  0  0  0  0  0  0  0  0  0  0
   -3.0966  -10.2305   21.9263 N   0  0  0  0  0  0  0  0  0  0  0  0
   -0.1216   -9.9893   21.9963 H   0  0  0  0  0  0  0  0  0  0  0  0
   -0.6759   -8.3662   22.5208 H   0  0  0  0  0  0  0  0  0  0  0  0
    0.7097   -8.5161   21.4316 H   0  0  0  0  0  0  0  0  0  0  0  0
   -3.1803   -9.3145   18.6465 H   0  0  0  0  0  0  0  0  0  0  0  0
   -6.0371  -11.8146   21.9177 H   0  0  0  0  0  0  0  0  0  0  0  0
   -4.3453  -12.1706   24.3883 H   0  0  0  0  0  0  0  0  0  0  0  0
   -5.9721  -11.4893   24.4039 H   0  0  0  0  0  0  0  0  0  0  0  0
   -6.8570  -13.7025   23.3636 H   0  0  0  0  0  0  0  0  0  0  0  0
   -5.2406  -14.3756   23.5364 H   0  0  0  0  0  0  0  0  0  0  0  0
   -7.6238  -12.7299   26.0699 H   0  0  0  0  0  0  0  0  0  0  0  0
   -7.4838  -16.9971   28.5457 H   0  0  0  0  0  0  0  0  0  0  0  0
   -6.0918  -18.9058   27.7613 H   0  0  0  0  0  0  0  0  0  0  0  0
   -4.8603  -18.7452   25.6187 H   0  0  0  0  0  0  0  0  0  0  0  0
   -4.8932  -16.6531   24.2828 H   0  0  0  0  0  0  0  0  0  0  0  0
  1  2  1  0
  2  3  2  0
  2  4  1  0
  4  5  2  0
  5  6  1  0
  6  7  1  0
  7  8  1  0
  8  9  1  0
  9 10  1  0
 10 11  1  0
 11 12  1  0
 12 13  2  0
 13 14  1  0
 14 15  2  0
 15 16  1  0
 16 17  2  0
 17 18  1  0
 18 19  2  0
  7 20  2  0
 20  4  1  0
 19 11  1  0
 19 14  1  0
  1 21  1  0
  1 22  1  0
  1 23  1  0
  5 24  1  0
  8 25  1  0
  9 26  1  0
  9 27  1  0
 10 28  1  0
 10 29  1  0
 12 30  1  0
 15 31  1  0
 16 32  1  0
 17 33  1  0
 18 34  1  0
M  END
>  <Energy>  (845) 
51.948113035151053

>  <compound_id>  (845) 
12738

>  <target_id>  (845) 
1

>  <reference_id>  (845) 
94

>  <inspiration_ids>  (845) 
[71, 94]

>  <energy_score>  (845) 
-42.85912181254213

>  <distance_score>  (845) 
15.22715786002102

>  <path>  (845) 
/opt/xchem-fragalysis-2/maxwin/BulkDock/SCRATCH/511015/C12738-P94/C12738-P94.minimised.mol

>  <scratch_subdir>  (845) 
/opt/xchem-fragalysis-2/maxwin/BulkDock/SCRATCH/511015/C12738-P94

>  <fragmenstein_runtime>  (845) 
12.067052602767944

>  <fragmenstein_outcome>  (845) 
too moved

>  <fragmenstein_mode>  (845) 
expansion

>  <fragmenstein_error>  (845) 


$$$$
C12739-P71
     RDKit          3D

 45 47  0  0  0  0  0  0  0  0999 V2000
    0.3501  -16.7734   30.3554 C   0  0  0  0  0  0  0  0  0  0  0  0
   -0.9128  -16.0122   30.4200 N   0  0  0  0  0  0  0  0  0  0  0  0
   -1.9221  -16.7173   29.6320 C   0  0  0  0  0  0  0  0  0  0  0  0
   -1.3772  -15.7623   31.8574 C   0  0  0  0  0  0  0  0  0  0  0  0
   -3.0528  -15.7848   32.0571 C   0  0  0  0  0  0  0  0  0  0  0  0
   -3.6411  -14.7944   31.7056 O   0  0  0  0  0  0  0  0  0  0  0  0
   -3.5591  -17.0398   32.6803 N   0  0  0  0  0  0  0  0  0  0  0  0
   -4.9396  -17.4172   33.1535 C   0  0  0  0  0  0  0  0  0  0  0  0
   -5.4062  -18.9233   33.2216 C   0  0  0  0  0  0  0  0  0  0  0  0
   -6.8105  -19.1510   33.9358 C   0  0  0  0  0  0  0  0  0  0  0  0
   -7.3515  -20.5359   33.9257 N   0  0  0  0  0  0  0  0  0  0  0  0
   -7.1035  -21.3165   35.0233 C   0  0  0  0  0  0  0  0  0  0  0  0
   -7.6151  -22.5260   34.8589 N   0  0  0  0  0  0  0  0  0  0  0  0
   -8.3380  -22.5963   33.6426 C   0  0  0  0  0  0  0  0  0  0  0  0
   -9.2885  -23.6149   33.2100 C   0  0  0  0  0  0  0  0  0  0  0  0
  -10.5295  -23.2690   32.5909 C   0  0  0  0  0  0  0  0  0  0  0  0
  -10.8492  -21.9395   32.2767 C   0  0  0  0  0  0  0  0  0  0  0  0
   -9.8636  -20.9269   32.4716 C   0  0  0  0  0  0  0  0  0  0  0  0
   -8.3799  -21.2747   33.1640 C   0  0  0  0  0  0  0  0  0  0  0  0
   -0.7400  -14.3709   32.2934 C   0  0  0  0  0  0  0  0  0  0  0  0
   -1.2912  -13.0948   32.2101 C   0  0  0  0  0  0  0  0  0  0  0  0
   -0.1744  -11.8678   32.6815 S   0  0  0  0  0  0  0  0  0  0  0  0
    0.9487  -13.0988   33.0695 C   0  0  0  0  0  0  0  0  0  0  0  0
    0.5763  -14.3385   32.8096 N   0  0  0  0  0  0  0  0  0  0  0  0
    0.1575  -17.8481   30.4718 H   0  0  0  0  0  0  0  0  0  0  0  0
    1.0450  -16.5312   31.1654 H   0  0  0  0  0  0  0  0  0  0  0  0
    0.8488  -16.6337   29.3923 H   0  0  0  0  0  0  0  0  0  0  0  0
   -1.5566  -16.9239   28.6214 H   0  0  0  0  0  0  0  0  0  0  0  0
   -2.8167  -16.1084   29.5037 H   0  0  0  0  0  0  0  0  0  0  0  0
   -2.2065  -17.6749   30.0829 H   0  0  0  0  0  0  0  0  0  0  0  0
   -0.9776  -16.5375   32.5239 H   0  0  0  0  0  0  0  0  0  0  0  0
   -2.7731  -17.6316   32.9215 H   0  0  0  0  0  0  0  0  0  0  0  0
   -5.6410  -16.8544   32.5271 H   0  0  0  0  0  0  0  0  0  0  0  0
   -5.0097  -16.9925   34.1617 H   0  0  0  0  0  0  0  0  0  0  0  0
   -4.6473  -19.4974   33.7675 H   0  0  0  0  0  0  0  0  0  0  0  0
   -5.4148  -19.3287   32.2049 H   0  0  0  0  0  0  0  0  0  0  0  0
   -6.6633  -18.8916   34.9939 H   0  0  0  0  0  0  0  0  0  0  0  0
   -7.5822  -18.4511   33.6078 H   0  0  0  0  0  0  0  0  0  0  0  0
   -6.5498  -20.9830   35.8922 H   0  0  0  0  0  0  0  0  0  0  0  0
   -9.1793  -24.6305   33.5876 H   0  0  0  0  0  0  0  0  0  0  0  0
  -11.2756  -24.0493   32.4393 H   0  0  0  0  0  0  0  0  0  0  0  0
  -11.8445  -21.6872   31.9256 H   0  0  0  0  0  0  0  0  0  0  0  0
  -10.1542  -19.8861   32.5149 H   0  0  0  0  0  0  0  0  0  0  0  0
   -2.2697  -12.8139   31.8473 H   0  0  0  0  0  0  0  0  0  0  0  0
    1.9205  -12.8675   33.4841 H   0  0  0  0  0  0  0  0  0  0  0  0
  1  2  1  0
  2  3  1  0
  2  4  1  0
  4  5  1  0
  5  6  2  0
  5  7  1  0
  7  8  1  0
  8  9  1  0
  9 10  1  0
 10 11  1  0
 11 12  1  0
 12 13  2  0
 13 14  1  0
 14 15  2  0
 15 16  1  0
 16 17  2  0
 17 18  1  0
 18 19  2  0
  4 20  1  0
 20 21  2  0
 21 22  1  0
 22 23  1  0
 23 24  2  0
 19 11  1  0
 24 20  1  0
 19 14  1  0
  1 25  1  0
  1 26  1  0
  1 27  1  0
  3 28  1  0
  3 29  1  0
  3 30  1  0
  4 31  1  0
  7 32  1  0
  8 33  1  0
  8 34  1  0
  9 35  1  0
  9 36  1  0
 10 37  1  0
 10 38  1  0
 12 39  1  0
 15 40  1  0
 16 41  1  0
 17 42  1  0
 18 43  1  0
 21 44  1  0
 23 45  1  0
M  END
>  <Energy>  (846) 
168.11408172550691

>  <compound_id>  (846) 
12739

>  <target_id>  (846) 
1

>  <reference_id>  (846) 
71

>  <inspiration_ids>  (846) 
[71, 94]

>  <energy_score>  (846) 
-19.120507248635533

>  <distance_score>  (846) 
18.757738148505126

>  <path>  (846) 
/opt/xchem-fragalysis-2/maxwin/BulkDock/SCRATCH/511015/C12739-P71/C12739-P71.minimised.mol

>  <scratch_subdir>  (846) 
/opt/xchem-fragalysis-2/maxwin/BulkDock/SCRATCH/511015/C12739-P71

>  <fragmenstein_runtime>  (846) 
21.183210134506226

>  <fragmenstein_outcome>  (846) 
too moved

>  <fragmenstein_mode>  (846) 
expansion

>  <fragmenstein_error>  (846) 


$$$$
C12739-P94
     RDKit          3D

 45 47  0  0  0  0  0  0  0  0999 V2000
   -1.3108   -6.8706   18.9417 C   0  0  0  0  0  0  0  0  0  0  0  0
   -2.2178   -7.9015   19.5164 N   0  0  0  0  0  0  0  0  0  0  0  0
   -3.3161   -8.1729   18.5931 C   0  0  0  0  0  0  0  0  0  0  0  0
   -2.7728   -7.6184   20.9197 C   0  0  0  0  0  0  0  0  0  0  0  0
   -3.5210   -9.0248   21.5784 C   0  0  0  0  0  0  0  0  0  0  0  0
   -2.7761   -9.9377   21.8438 O   0  0  0  0  0  0  0  0  0  0  0  0
   -5.0354   -8.9423   21.6340 N   0  0  0  0  0  0  0  0  0  0  0  0
   -6.1165  -10.0429   21.9496 C   0  0  0  0  0  0  0  0  0  0  0  0
   -6.5329  -10.6210   23.4196 C   0  0  0  0  0  0  0  0  0  0  0  0
   -7.5423  -11.8794   23.5705 C   0  0  0  0  0  0  0  0  0  0  0  0
   -7.7969  -12.5274   24.8802 N   0  0  0  0  0  0  0  0  0  0  0  0
   -7.6724  -11.9431   26.1165 C   0  0  0  0  0  0  0  0  0  0  0  0
   -7.9381  -12.7632   27.1097 N   0  0  0  0  0  0  0  0  0  0  0  0
   -8.3396  -13.9237   26.5186 C   0  0  0  0  0  0  0  0  0  0  0  0
   -8.7722  -15.1061   27.1359 C   0  0  0  0  0  0  0  0  0  0  0  0
   -9.2030  -16.1529   26.3310 C   0  0  0  0  0  0  0  0  0  0  0  0
   -9.1820  -16.0350   24.9394 C   0  0  0  0  0  0  0  0  0  0  0  0
   -8.7189  -14.8698   24.3061 C   0  0  0  0  0  0  0  0  0  0  0  0
   -8.3011  -13.8106   25.1235 C   0  0  0  0  0  0  0  0  0  0  0  0
   -1.5515   -7.0611   21.6965 C   0  0  0  0  0  0  0  0  0  0  0  0
   -0.3583   -7.7179   21.9728 C   0  0  0  0  0  0  0  0  0  0  0  0
    0.8621   -6.5962   22.4162 S   0  0  0  0  0  0  0  0  0  0  0  0
   -0.2425   -5.3177   22.2208 C   0  0  0  0  0  0  0  0  0  0  0  0
   -1.4604   -5.6590   21.8581 N   0  0  0  0  0  0  0  0  0  0  0  0
   -1.7662   -5.8753   18.9779 H   0  0  0  0  0  0  0  0  0  0  0  0
   -1.0966   -7.1042   17.8918 H   0  0  0  0  0  0  0  0  0  0  0  0
   -0.3336   -6.8523   19.4279 H   0  0  0  0  0  0  0  0  0  0  0  0
   -3.9723   -7.3036   18.4738 H   0  0  0  0  0  0  0  0  0  0  0  0
   -2.9332   -8.4514   17.6046 H   0  0  0  0  0  0  0  0  0  0  0  0
   -3.9206   -9.0214   18.9283 H   0  0  0  0  0  0  0  0  0  0  0  0
   -3.5374   -6.8331   20.8673 H   0  0  0  0  0  0  0  0  0  0  0  0
   -5.3342   -8.0505   21.2627 H   0  0  0  0  0  0  0  0  0  0  0  0
   -5.8656  -10.8804   21.2927 H   0  0  0  0  0  0  0  0  0  0  0  0
   -7.0356   -9.6080   21.5375 H   0  0  0  0  0  0  0  0  0  0  0  0
   -6.9013   -9.7849   24.0235 H   0  0  0  0  0  0  0  0  0  0  0  0
   -5.5950  -10.9424   23.8250 H   0  0  0  0  0  0  0  0  0  0  0  0
   -7.1777  -12.6748   22.9174 H   0  0  0  0  0  0  0  0  0  0  0  0
   -8.5289  -11.5687   23.2078 H   0  0  0  0  0  0  0  0  0  0  0  0
   -7.3748  -10.9107   26.2388 H   0  0  0  0  0  0  0  0  0  0  0  0
   -8.7897  -15.1741   28.2178 H   0  0  0  0  0  0  0  0  0  0  0  0
   -9.5566  -17.0474   26.8225 H   0  0  0  0  0  0  0  0  0  0  0  0
   -9.5254  -16.8559   24.3178 H   0  0  0  0  0  0  0  0  0  0  0  0
   -8.6973  -14.7922   23.2246 H   0  0  0  0  0  0  0  0  0  0  0  0
   -0.1385   -8.7683   21.8324 H   0  0  0  0  0  0  0  0  0  0  0  0
    0.0417   -4.2886   22.3924 H   0  0  0  0  0  0  0  0  0  0  0  0
  1  2  1  0
  2  3  1  0
  2  4  1  0
  4  5  1  0
  5  6  2  0
  5  7  1  0
  7  8  1  0
  8  9  1  0
  9 10  1  0
 10 11  1  0
 11 12  1  0
 12 13  2  0
 13 14  1  0
 14 15  2  0
 15 16  1  0
 16 17  2  0
 17 18  1  0
 18 19  2  0
  4 20  1  0
 20 21  2  0
 21 22  1  0
 22 23  1  0
 23 24  2  0
 19 11  1  0
 24 20  1  0
 19 14  1  0
  1 25  1  0
  1 26  1  0
  1 27  1  0
  3 28  1  0
  3 29  1  0
  3 30  1  0
  4 31  1  0
  7 32  1  0
  8 33  1  0
  8 34  1  0
  9 35  1  0
  9 36  1  0
 10 37  1  0
 10 38  1  0
 12 39  1  0
 15 40  1  0
 16 41  1  0
 17 42  1  0
 18 43  1  0
 21 44  1  0
 23 45  1  0
M  END
>  <Energy>  (847) 
133.83127369979147

>  <compound_id>  (847) 
12739

>  <target_id>  (847) 
1

>  <reference_id>  (847) 
94

>  <inspiration_ids>  (847) 
[71, 94]

>  <energy_score>  (847) 
-53.403315274348756

>  <distance_score>  (847) 
15.732049879265777

>  <path>  (847) 
/opt/xchem-fragalysis-2/maxwin/BulkDock/SCRATCH/511015/C12739-P94/C12739-P94.minimised.mol

>  <scratch_subdir>  (847) 
/opt/xchem-fragalysis-2/maxwin/BulkDock/SCRATCH/511015/C12739-P94

>  <fragmenstein_runtime>  (847) 
29.097997665405273

>  <fragmenstein_outcome>  (847) 
too moved

>  <fragmenstein_mode>  (847) 
expansion

>  <fragmenstein_error>  (847) 


$$$$
C12740-P71
     RDKit          3D

 34 36  0  0  0  0  0  0  0  0999 V2000
    2.0735  -11.7531   23.1669 O   0  0  0  0  0  0  0  0  0  0  0  0
    0.9941  -11.7202   22.5307 C   0  0  0  0  0  0  0  0  0  0  0  0
   -0.2665  -13.3568   23.1748 C   0  0  0  0  0  0  0  0  0  0  0  0
   -1.1790  -14.3142   24.7318 C   0  0  0  0  0  0  0  0  0  0  0  0
   -2.9188  -14.6736   25.2722 N   0  0  0  0  0  0  0  0  0  0  0  0
   -3.5201  -13.9151   26.2733 C   0  0  0  0  0  0  0  0  0  0  0  0
   -3.8988  -14.6537   27.2990 N   0  0  0  0  0  0  0  0  0  0  0  0
   -4.0816  -15.8909   26.7634 C   0  0  0  0  0  0  0  0  0  0  0  0
   -4.7527  -17.0021   27.3215 C   0  0  0  0  0  0  0  0  0  0  0  0
   -5.2581  -17.9810   26.4668 C   0  0  0  0  0  0  0  0  0  0  0  0
   -5.1693  -17.7836   25.0941 C   0  0  0  0  0  0  0  0  0  0  0  0
   -4.4541  -16.6891   24.5558 C   0  0  0  0  0  0  0  0  0  0  0  0
   -3.6972  -15.8626   25.4096 C   0  0  0  0  0  0  0  0  0  0  0  0
    0.6478  -10.5855   21.0635 N   0  0  0  0  0  0  0  0  0  0  0  0
    1.8750   -9.3170   19.9906 C   0  0  0  0  0  0  0  0  0  0  0  0
    3.6304   -9.0837   18.6661 C   0  0  0  0  0  0  0  0  0  0  0  0
    5.3129   -9.7394   18.8588 N   0  0  0  0  0  0  0  0  0  0  0  0
    7.0969   -9.9654   19.7316 C   0  0  0  0  0  0  0  0  0  0  0  0
    6.7201   -7.9148   20.0728 C   0  0  0  0  0  0  0  0  0  0  0  0
    5.1925   -7.3696   18.4165 S   0  0  0  0  0  0  0  0  0  0  0  0
   -0.2643  -14.1806   22.4441 H   0  0  0  0  0  0  0  0  0  0  0  0
    0.5660  -13.9849   23.7314 H   0  0  0  0  0  0  0  0  0  0  0  0
   -1.2436  -13.6394   25.5853 H   0  0  0  0  0  0  0  0  0  0  0  0
   -1.3109  -15.3077   24.3986 H   0  0  0  0  0  0  0  0  0  0  0  0
   -3.5646  -12.8363   26.2034 H   0  0  0  0  0  0  0  0  0  0  0  0
   -4.9761  -17.0182   28.3838 H   0  0  0  0  0  0  0  0  0  0  0  0
   -5.8130  -18.8192   26.8760 H   0  0  0  0  0  0  0  0  0  0  0  0
   -5.6848  -18.4625   24.4181 H   0  0  0  0  0  0  0  0  0  0  0  0
   -4.5103  -16.4833   23.4905 H   0  0  0  0  0  0  0  0  0  0  0  0
   -0.3240  -10.6883   20.7779 H   0  0  0  0  0  0  0  0  0  0  0  0
    1.1522   -8.6019   19.5220 H   0  0  0  0  0  0  0  0  0  0  0  0
    2.0057   -9.2113   21.1269 H   0  0  0  0  0  0  0  0  0  0  0  0
    7.8533  -10.3830   19.0242 H   0  0  0  0  0  0  0  0  0  0  0  0
    7.4797   -7.1180   20.0021 H   0  0  0  0  0  0  0  0  0  0  0  0
  1  2  2  0
  2  3  1  0
  3  4  1  0
  4  5  1  0
  5  6  1  0
  6  7  2  0
  7  8  1  0
  8  9  2  0
  9 10  1  0
 10 11  2  0
 11 12  1  0
 12 13  2  0
  2 14  1  0
 14 15  1  0
 15 16  1  0
 16 17  2  0
 17 18  1  0
 18 19  2  0
 19 20  1  0
 13  5  1  0
 20 16  1  0
 13  8  1  0
  3 21  1  0
  3 22  1  0
  4 23  1  0
  4 24  1  0
  6 25  1  0
  9 26  1  0
 10 27  1  0
 11 28  1  0
 12 29  1  0
 14 30  1  0
 15 31  1  0
 15 32  1  0
 18 33  1  0
 19 34  1  0
M  END
>  <Energy>  (848) 
1385.4666302371015

>  <compound_id>  (848) 
12740

>  <target_id>  (848) 
1

>  <reference_id>  (848) 
71

>  <inspiration_ids>  (848) 
[71, 94]

>  <energy_score>  (848) 
1353.8321273799718

>  <distance_score>  (848) 
12.608337129488861

>  <path>  (848) 
/opt/xchem-fragalysis-2/maxwin/BulkDock/SCRATCH/511015/C12740-P71/C12740-P71.minimised.mol

>  <scratch_subdir>  (848) 
/opt/xchem-fragalysis-2/maxwin/BulkDock/SCRATCH/511015/C12740-P71

>  <fragmenstein_runtime>  (848) 
23.11807131767273

>  <fragmenstein_outcome>  (848) 
too moved

>  <fragmenstein_mode>  (848) 
expansion

>  <fragmenstein_error>  (848) 


$$$$
C12740-P94
     RDKit          3D

 34 36  0  0  0  0  0  0  0  0999 V2000
    0.4282   -6.8700   23.6749 O   0  0  0  0  0  0  0  0  0  0  0  0
    0.9402   -7.8308   23.1298 C   0  0  0  0  0  0  0  0  0  0  0  0
   -0.1275   -8.8909   22.0445 C   0  0  0  0  0  0  0  0  0  0  0  0
   -1.8113   -8.9494   22.0488 C   0  0  0  0  0  0  0  0  0  0  0  0
   -2.7540   -9.8215   21.2980 N   0  0  0  0  0  0  0  0  0  0  0  0
   -2.4144  -10.8098   20.4239 C   0  0  0  0  0  0  0  0  0  0  0  0
   -3.4350  -11.3829   19.8351 N   0  0  0  0  0  0  0  0  0  0  0  0
   -4.5444  -10.8383   20.4171 C   0  0  0  0  0  0  0  0  0  0  0  0
   -5.8877  -11.2783   20.3080 C   0  0  0  0  0  0  0  0  0  0  0  0
   -6.8450  -10.7755   21.1904 C   0  0  0  0  0  0  0  0  0  0  0  0
   -6.4810   -9.7932   22.1086 C   0  0  0  0  0  0  0  0  0  0  0  0
   -5.1604   -9.2899   22.1795 C   0  0  0  0  0  0  0  0  0  0  0  0
   -4.1683   -9.8520   21.3501 C   0  0  0  0  0  0  0  0  0  0  0  0
    2.5990   -8.3013   23.1234 N   0  0  0  0  0  0  0  0  0  0  0  0
    4.1851   -7.4095   23.8491 C   0  0  0  0  0  0  0  0  0  0  0  0
    5.9538   -7.5891   24.4012 C   0  0  0  0  0  0  0  0  0  0  0  0
    6.4266   -8.4456   25.3150 N   0  0  0  0  0  0  0  0  0  0  0  0
    7.8075   -8.3135   25.4415 C   0  0  0  0  0  0  0  0  0  0  0  0
    8.4103   -7.3111   24.7187 C   0  0  0  0  0  0  0  0  0  0  0  0
    7.2430   -6.4622   23.8175 S   0  0  0  0  0  0  0  0  0  0  0  0
    0.1507   -8.5374   21.0451 H   0  0  0  0  0  0  0  0  0  0  0  0
    0.1459   -9.9400   22.0240 H   0  0  0  0  0  0  0  0  0  0  0  0
   -2.1731   -8.9406   23.0570 H   0  0  0  0  0  0  0  0  0  0  0  0
   -2.0869   -8.0433   21.5680 H   0  0  0  0  0  0  0  0  0  0  0  0
   -1.4001  -11.0890   20.2599 H   0  0  0  0  0  0  0  0  0  0  0  0
   -6.1331  -12.0618   19.6020 H   0  0  0  0  0  0  0  0  0  0  0  0
   -7.8651  -11.1431   21.1554 H   0  0  0  0  0  0  0  0  0  0  0  0
   -7.2283   -9.3967   22.7920 H   0  0  0  0  0  0  0  0  0  0  0  0
   -4.9206   -8.5438   22.9195 H   0  0  0  0  0  0  0  0  0  0  0  0
    2.6897   -9.1610   22.6686 H   0  0  0  0  0  0  0  0  0  0  0  0
    4.7367   -7.4187   22.9419 H   0  0  0  0  0  0  0  0  0  0  0  0
    3.7157   -6.6857   24.4744 H   0  0  0  0  0  0  0  0  0  0  0  0
    8.3290   -8.9871   26.1102 H   0  0  0  0  0  0  0  0  0  0  0  0
    9.4549   -7.0378   24.6974 H   0  0  0  0  0  0  0  0  0  0  0  0
  1  2  2  0
  2  3  1  0
  3  4  1  0
  4  5  1  0
  5  6  1  0
  6  7  2  0
  7  8  1  0
  8  9  2  0
  9 10  1  0
 10 11  2  0
 11 12  1  0
 12 13  2  0
  2 14  1  0
 14 15  1  0
 15 16  1  0
 16 17  2  0
 17 18  1  0
 18 19  2  0
 19 20  1  0
 13  5  1  0
 20 16  1  0
 13  8  1  0
  3 21  1  0
  3 22  1  0
  4 23  1  0
  4 24  1  0
  6 25  1  0
  9 26  1  0
 10 27  1  0
 11 28  1  0
 12 29  1  0
 14 30  1  0
 15 31  1  0
 15 32  1  0
 18 33  1  0
 19 34  1  0
M  END
>  <Energy>  (849) 
238.38938125422328

>  <compound_id>  (849) 
12740

>  <target_id>  (849) 
1

>  <reference_id>  (849) 
94

>  <inspiration_ids>  (849) 
[71, 94]

>  <energy_score>  (849) 
206.75487839707364

>  <distance_score>  (849) 
17.16871501073494

>  <path>  (849) 
/opt/xchem-fragalysis-2/maxwin/BulkDock/SCRATCH/511015/C12740-P94/C12740-P94.minimised.mol

>  <scratch_subdir>  (849) 
/opt/xchem-fragalysis-2/maxwin/BulkDock/SCRATCH/511015/C12740-P94

>  <fragmenstein_runtime>  (849) 
35.118738412857056

>  <fragmenstein_outcome>  (849) 
too moved

>  <fragmenstein_mode>  (849) 
expansion

>  <fragmenstein_error>  (849) 


$$$$
C12741-P71
     RDKit          3D

 34 36  0  0  0  0  0  0  0  0999 V2000
  -10.3891  -17.8117   28.9181 O   0  0  0  0  0  0  0  0  0  0  0  0
  -11.5569  -17.7362   28.7763 C   0  0  0  0  0  0  0  0  0  0  0  0
  -12.4166  -19.5880   29.0983 C   0  0  0  0  0  0  0  0  0  0  0  0
  -11.6498  -20.9057   29.9591 C   0  0  0  0  0  0  0  0  0  0  0  0
  -11.8566  -22.3007   29.5535 N   0  0  0  0  0  0  0  0  0  0  0  0
  -11.7638  -22.7820   28.2725 C   0  0  0  0  0  0  0  0  0  0  0  0
  -11.4766  -24.0615   28.2221 N   0  0  0  0  0  0  0  0  0  0  0  0
  -11.3104  -24.4315   29.5230 C   0  0  0  0  0  0  0  0  0  0  0  0
  -10.8352  -25.6465   30.0255 C   0  0  0  0  0  0  0  0  0  0  0  0
  -10.6767  -25.7779   31.4034 C   0  0  0  0  0  0  0  0  0  0  0  0
  -10.9979  -24.7289   32.2647 C   0  0  0  0  0  0  0  0  0  0  0  0
  -11.4701  -23.5043   31.7806 C   0  0  0  0  0  0  0  0  0  0  0  0
  -11.6069  -23.3797   30.3913 C   0  0  0  0  0  0  0  0  0  0  0  0
  -12.3193  -16.5854   28.3325 N   0  0  0  0  0  0  0  0  0  0  0  0
  -11.8561  -15.1546   27.8112 C   0  0  0  0  0  0  0  0  0  0  0  0
  -10.2413  -14.7950   27.2243 C   0  0  0  0  0  0  0  0  0  0  0  0
   -9.8873  -14.0787   26.1251 N   0  0  0  0  0  0  0  0  0  0  0  0
   -8.4777  -13.7705   26.0738 C   0  0  0  0  0  0  0  0  0  0  0  0
   -7.6700  -12.8420   24.8250 Cl  0  0  0  0  0  0  0  0  0  0  0  0
   -7.7762  -14.2678   27.1443 C   0  0  0  0  0  0  0  0  0  0  0  0
   -8.8406  -15.0657   28.2343 S   0  0  0  0  0  0  0  0  0  0  0  0
  -12.3796  -20.3258   28.3042 H   0  0  0  0  0  0  0  0  0  0  0  0
  -13.4516  -19.6000   29.3478 H   0  0  0  0  0  0  0  0  0  0  0  0
  -11.8397  -20.8842   31.0339 H   0  0  0  0  0  0  0  0  0  0  0  0
  -10.5898  -20.7743   29.8262 H   0  0  0  0  0  0  0  0  0  0  0  0
  -11.8426  -22.1579   27.3961 H   0  0  0  0  0  0  0  0  0  0  0  0
  -10.5769  -26.4532   29.3534 H   0  0  0  0  0  0  0  0  0  0  0  0
  -10.3098  -26.7165   31.8065 H   0  0  0  0  0  0  0  0  0  0  0  0
  -10.8870  -24.8709   33.3376 H   0  0  0  0  0  0  0  0  0  0  0  0
  -11.7069  -22.6980   32.4650 H   0  0  0  0  0  0  0  0  0  0  0  0
  -13.3104  -16.8105   28.3964 H   0  0  0  0  0  0  0  0  0  0  0  0
  -12.5229  -14.9042   26.9796 H   0  0  0  0  0  0  0  0  0  0  0  0
  -12.0177  -14.4625   28.6444 H   0  0  0  0  0  0  0  0  0  0  0  0
   -6.7209  -14.1842   27.3580 H   0  0  0  0  0  0  0  0  0  0  0  0
  1  2  2  0
  2  3  1  0
  3  4  1  0
  4  5  1  0
  5  6  1  0
  6  7  2  0
  7  8  1  0
  8  9  2  0
  9 10  1  0
 10 11  2  0
 11 12  1  0
 12 13  2  0
  2 14  1  0
 14 15  1  0
 15 16  1  0
 16 17  2  0
 17 18  1  0
 18 19  1  0
 18 20  2  0
 20 21  1  0
 13  5  1  0
 21 16  1  0
 13  8  1  0
  3 22  1  0
  3 23  1  0
  4 24  1  0
  4 25  1  0
  6 26  1  0
  9 27  1  0
 10 28  1  0
 11 29  1  0
 12 30  1  0
 14 31  1  0
 15 32  1  0
 15 33  1  0
 20 34  1  0
M  END
>  <Energy>  (850) 
153.01195877743652

>  <compound_id>  (850) 
12741

>  <target_id>  (850) 
1

>  <reference_id>  (850) 
71

>  <inspiration_ids>  (850) 
[71, 94]

>  <energy_score>  (850) 
96.39239289612027

>  <distance_score>  (850) 
16.357020813013182

>  <path>  (850) 
/opt/xchem-fragalysis-2/maxwin/BulkDock/SCRATCH/511015/C12741-P71/C12741-P71.minimised.mol

>  <scratch_subdir>  (850) 
/opt/xchem-fragalysis-2/maxwin/BulkDock/SCRATCH/511015/C12741-P71

>  <fragmenstein_runtime>  (850) 
17.902815103530884

>  <fragmenstein_outcome>  (850) 
too moved

>  <fragmenstein_mode>  (850) 
expansion

>  <fragmenstein_error>  (850) 


$$$$
C12741-P94
     RDKit          3D

 34 36  0  0  0  0  0  0  0  0999 V2000
   -3.3332  -18.4463   19.4410 O   0  0  0  0  0  0  0  0  0  0  0  0
   -4.2510  -17.9614   18.8371 C   0  0  0  0  0  0  0  0  0  0  0  0
   -5.6718  -18.0153   19.5469 C   0  0  0  0  0  0  0  0  0  0  0  0
   -5.8409  -17.9400   21.1292 C   0  0  0  0  0  0  0  0  0  0  0  0
   -5.6802  -19.0012   22.1213 N   0  0  0  0  0  0  0  0  0  0  0  0
   -5.2667  -18.7087   23.4131 C   0  0  0  0  0  0  0  0  0  0  0  0
   -5.0849  -19.7773   24.1492 N   0  0  0  0  0  0  0  0  0  0  0  0
   -5.5444  -20.8037   23.3723 C   0  0  0  0  0  0  0  0  0  0  0  0
   -5.6157  -22.1681   23.6977 C   0  0  0  0  0  0  0  0  0  0  0  0
   -6.3013  -23.0183   22.8367 C   0  0  0  0  0  0  0  0  0  0  0  0
   -6.8946  -22.5216   21.6751 C   0  0  0  0  0  0  0  0  0  0  0  0
   -6.7704  -21.1720   21.2985 C   0  0  0  0  0  0  0  0  0  0  0  0
   -6.0590  -20.3269   22.1557 C   0  0  0  0  0  0  0  0  0  0  0  0
   -4.3124  -17.3909   17.4634 N   0  0  0  0  0  0  0  0  0  0  0  0
   -3.2774  -17.3377   16.3740 C   0  0  0  0  0  0  0  0  0  0  0  0
   -2.7056  -16.0603   15.6374 C   0  0  0  0  0  0  0  0  0  0  0  0
   -1.5204  -16.0785   15.0131 N   0  0  0  0  0  0  0  0  0  0  0  0
   -1.1943  -14.8717   14.4049 C   0  0  0  0  0  0  0  0  0  0  0  0
    0.3697  -14.5979   13.7003 Cl  0  0  0  0  0  0  0  0  0  0  0  0
   -2.2406  -13.9781   14.4144 C   0  0  0  0  0  0  0  0  0  0  0  0
   -3.5433  -14.5836   15.3796 S   0  0  0  0  0  0  0  0  0  0  0  0
   -6.2414  -17.1672   19.1450 H   0  0  0  0  0  0  0  0  0  0  0  0
   -6.1568  -18.9293   19.1866 H   0  0  0  0  0  0  0  0  0  0  0  0
   -5.1628  -17.1406   21.4536 H   0  0  0  0  0  0  0  0  0  0  0  0
   -6.8631  -17.5787   21.3086 H   0  0  0  0  0  0  0  0  0  0  0  0
   -5.0805  -17.6917   23.7355 H   0  0  0  0  0  0  0  0  0  0  0  0
   -5.1932  -22.5332   24.6273 H   0  0  0  0  0  0  0  0  0  0  0  0
   -6.3608  -24.0717   23.0861 H   0  0  0  0  0  0  0  0  0  0  0  0
   -7.4334  -23.2055   21.0212 H   0  0  0  0  0  0  0  0  0  0  0  0
   -7.1996  -20.8179   20.3683 H   0  0  0  0  0  0  0  0  0  0  0  0
   -5.2698  -17.1454   17.2477 H   0  0  0  0  0  0  0  0  0  0  0  0
   -2.4317  -17.9257   16.7451 H   0  0  0  0  0  0  0  0  0  0  0  0
   -3.7210  -17.9395   15.5694 H   0  0  0  0  0  0  0  0  0  0  0  0
   -2.3014  -13.0032   13.9559 H   0  0  0  0  0  0  0  0  0  0  0  0
  1  2  2  0
  2  3  1  0
  3  4  1  0
  4  5  1  0
  5  6  1  0
  6  7  2  0
  7  8  1  0
  8  9  2  0
  9 10  1  0
 10 11  2  0
 11 12  1  0
 12 13  2  0
  2 14  1  0
 14 15  1  0
 15 16  1  0
 16 17  2  0
 17 18  1  0
 18 19  1  0
 18 20  2  0
 20 21  1  0
 13  5  1  0
 21 16  1  0
 13  8  1  0
  3 22  1  0
  3 23  1  0
  4 24  1  0
  4 25  1  0
  6 26  1  0
  9 27  1  0
 10 28  1  0
 11 29  1  0
 12 30  1  0
 14 31  1  0
 15 32  1  0
 15 33  1  0
 20 34  1  0
M  END
>  <Energy>  (851) 
35.744974947920554

>  <compound_id>  (851) 
12741

>  <target_id>  (851) 
1

>  <reference_id>  (851) 
94

>  <inspiration_ids>  (851) 
[71, 94]

>  <energy_score>  (851) 
-20.874590933392454

>  <distance_score>  (851) 
15.116438197685662

>  <path>  (851) 
/opt/xchem-fragalysis-2/maxwin/BulkDock/SCRATCH/511015/C12741-P94/C12741-P94.minimised.mol

>  <scratch_subdir>  (851) 
/opt/xchem-fragalysis-2/maxwin/BulkDock/SCRATCH/511015/C12741-P94

>  <fragmenstein_runtime>  (851) 
26.83416485786438

>  <fragmenstein_outcome>  (851) 
too moved

>  <fragmenstein_mode>  (851) 
expansion

>  <fragmenstein_error>  (851) 


$$$$
C12743-P71
     RDKit          3D

 38 40  0  0  0  0  0  0  0  0999 V2000
   -3.3316  -18.2972   28.1374 C   0  0  0  0  0  0  0  0  0  0  0  0
   -2.9860  -17.4053   29.3361 C   0  0  0  0  0  0  0  0  0  0  0  0
   -1.6647  -16.4766   29.2365 C   0  0  0  0  0  0  0  0  0  0  0  0
   -0.8734  -16.4627   30.1400 O   0  0  0  0  0  0  0  0  0  0  0  0
   -1.7166  -15.6765   27.9872 N   0  0  0  0  0  0  0  0  0  0  0  0
   -0.6974  -14.3218   27.4174 C   0  0  0  0  0  0  0  0  0  0  0  0
    0.9252  -13.7269   26.2211 C   0  0  0  0  0  0  0  0  0  0  0  0
    2.3221  -13.8384   26.4230 N   0  0  0  0  0  0  0  0  0  0  0  0
    3.5621  -13.9173   25.0820 C   0  0  0  0  0  0  0  0  0  0  0  0
    5.0738  -14.1555   25.2661 C   0  0  0  0  0  0  0  0  0  0  0  0
    5.9235  -13.2026   24.5767 O   0  0  0  0  0  0  0  0  0  0  0  0
    2.9749  -13.4969   23.8934 C   0  0  0  0  0  0  0  0  0  0  0  0
    0.9400  -13.9999   23.9524 S   0  0  0  0  0  0  0  0  0  0  0  0
   -3.1080  -18.2572   30.5459 N   0  0  0  0  0  0  0  0  0  0  0  0
   -2.3878  -19.4028   30.7794 C   0  0  0  0  0  0  0  0  0  0  0  0
   -2.8818  -20.1158   31.7647 N   0  0  0  0  0  0  0  0  0  0  0  0
   -3.9447  -19.3837   32.2295 C   0  0  0  0  0  0  0  0  0  0  0  0
   -4.7741  -19.6348   33.3278 C   0  0  0  0  0  0  0  0  0  0  0  0
   -5.7905  -18.7300   33.6324 C   0  0  0  0  0  0  0  0  0  0  0  0
   -5.9935  -17.6021   32.8369 C   0  0  0  0  0  0  0  0  0  0  0  0
   -5.1866  -17.3370   31.7244 C   0  0  0  0  0  0  0  0  0  0  0  0
   -4.1395  -18.2315   31.4669 C   0  0  0  0  0  0  0  0  0  0  0  0
   -4.2324  -18.8944   28.3203 H   0  0  0  0  0  0  0  0  0  0  0  0
   -2.5073  -18.9839   27.9143 H   0  0  0  0  0  0  0  0  0  0  0  0
   -3.5095  -17.7204   27.2296 H   0  0  0  0  0  0  0  0  0  0  0  0
   -3.8027  -16.6913   29.4406 H   0  0  0  0  0  0  0  0  0  0  0  0
   -2.4598  -16.0016   27.4254 H   0  0  0  0  0  0  0  0  0  0  0  0
   -1.5600  -14.3794   26.6480 H   0  0  0  0  0  0  0  0  0  0  0  0
   -0.3224  -14.8625   28.2811 H   0  0  0  0  0  0  0  0  0  0  0  0
    5.3078  -15.1412   24.8495 H   0  0  0  0  0  0  0  0  0  0  0  0
    5.3433  -14.1768   26.3276 H   0  0  0  0  0  0  0  0  0  0  0  0
    6.0435  -12.4791   25.2124 H   0  0  0  0  0  0  0  0  0  0  0  0
    3.4186  -13.4039   22.9143 H   0  0  0  0  0  0  0  0  0  0  0  0
   -1.5212  -19.6720   30.1905 H   0  0  0  0  0  0  0  0  0  0  0  0
   -4.5972  -20.5011   33.9441 H   0  0  0  0  0  0  0  0  0  0  0  0
   -6.4476  -18.9253   34.4754 H   0  0  0  0  0  0  0  0  0  0  0  0
   -6.8045  -16.9227   33.0848 H   0  0  0  0  0  0  0  0  0  0  0  0
   -5.3498  -16.4473   31.1291 H   0  0  0  0  0  0  0  0  0  0  0  0
  1  2  1  0
  2  3  1  0
  3  4  2  0
  3  5  1  0
  5  6  1  0
  6  7  1  0
  7  8  2  0
  8  9  1  0
  9 10  1  0
 10 11  1  0
  9 12  2  0
 12 13  1  0
  2 14  1  0
 14 15  1  0
 15 16  2  0
 16 17  1  0
 17 18  2  0
 18 19  1  0
 19 20  2  0
 20 21  1  0
 21 22  2  0
 13  7  1  0
 22 14  1  0
 22 17  1  0
  1 23  1  0
  1 24  1  0
  1 25  1  0
  2 26  1  0
  5 27  1  0
  6 28  1  0
  6 29  1  0
 10 30  1  0
 10 31  1  0
 11 32  1  0
 12 33  1  0
 15 34  1  0
 18 35  1  0
 19 36  1  0
 20 37  1  0
 21 38  1  0
M  END
>  <Energy>  (852) 
394.54761224042403

>  <compound_id>  (852) 
12743

>  <target_id>  (852) 
1

>  <reference_id>  (852) 
71

>  <inspiration_ids>  (852) 
[71, 94]

>  <energy_score>  (852) 
292.7477252690411

>  <distance_score>  (852) 
13.986087206751051

>  <path>  (852) 
/opt/xchem-fragalysis-2/maxwin/BulkDock/SCRATCH/511015/C12743-P71/C12743-P71.minimised.mol

>  <scratch_subdir>  (852) 
/opt/xchem-fragalysis-2/maxwin/BulkDock/SCRATCH/511015/C12743-P71

>  <fragmenstein_runtime>  (852) 
22.0728120803833

>  <fragmenstein_outcome>  (852) 
too moved

>  <fragmenstein_mode>  (852) 
expansion

>  <fragmenstein_error>  (852) 


$$$$
C12743-P94
     RDKit          3D

 38 40  0  0  0  0  0  0  0  0999 V2000
   -7.1910  -10.6670   24.4517 C   0  0  0  0  0  0  0  0  0  0  0  0
   -5.6135  -11.5714   24.4029 C   0  0  0  0  0  0  0  0  0  0  0  0
   -3.5077  -11.0707   24.0767 C   0  0  0  0  0  0  0  0  0  0  0  0
   -2.8014  -11.7472   24.9346 O   0  0  0  0  0  0  0  0  0  0  0  0
   -2.4787   -9.6988   22.8648 N   0  0  0  0  0  0  0  0  0  0  0  0
   -0.3359   -9.1898   22.5847 C   0  0  0  0  0  0  0  0  0  0  0  0
    1.5448   -8.1224   21.9191 C   0  0  0  0  0  0  0  0  0  0  0  0
    1.9102   -6.7722   20.6433 N   0  0  0  0  0  0  0  0  0  0  0  0
    3.6346   -6.4718   19.5322 C   0  0  0  0  0  0  0  0  0  0  0  0
    3.7151   -5.7370   18.2289 C   0  0  0  0  0  0  0  0  0  0  0  0
    4.9533   -6.0288   17.5572 O   0  0  0  0  0  0  0  0  0  0  0  0
    5.0702   -7.8062   20.2985 C   0  0  0  0  0  0  0  0  0  0  0  0
    3.9949   -8.1146   22.6317 S   0  0  0  0  0  0  0  0  0  0  0  0
   -6.4370  -12.0537   26.1126 N   0  0  0  0  0  0  0  0  0  0  0  0
   -6.8519  -13.3553   26.5203 C   0  0  0  0  0  0  0  0  0  0  0  0
   -7.3142  -13.6124   27.7012 N   0  0  0  0  0  0  0  0  0  0  0  0
   -7.5515  -12.3941   28.1587 C   0  0  0  0  0  0  0  0  0  0  0  0
   -8.2459  -12.1626   29.3549 C   0  0  0  0  0  0  0  0  0  0  0  0
   -8.6738  -10.8838   29.6256 C   0  0  0  0  0  0  0  0  0  0  0  0
   -8.3886   -9.8757   28.7168 C   0  0  0  0  0  0  0  0  0  0  0  0
   -7.6415  -10.0932   27.5367 C   0  0  0  0  0  0  0  0  0  0  0  0
   -7.1613  -11.3796   27.2269 C   0  0  0  0  0  0  0  0  0  0  0  0
   -7.9498  -10.9104   25.1987 H   0  0  0  0  0  0  0  0  0  0  0  0
   -7.3160   -9.6290   24.7504 H   0  0  0  0  0  0  0  0  0  0  0  0
   -7.6021  -10.6602   23.4291 H   0  0  0  0  0  0  0  0  0  0  0  0
   -5.7975  -12.5626   23.9968 H   0  0  0  0  0  0  0  0  0  0  0  0
   -3.1581   -9.1859   22.3096 H   0  0  0  0  0  0  0  0  0  0  0  0
   -0.6530   -8.1603   22.7912 H   0  0  0  0  0  0  0  0  0  0  0  0
   -0.4645   -9.4385   21.5173 H   0  0  0  0  0  0  0  0  0  0  0  0
    3.6197   -4.6619   18.3930 H   0  0  0  0  0  0  0  0  0  0  0  0
    2.8930   -6.0699   17.5876 H   0  0  0  0  0  0  0  0  0  0  0  0
    4.8214   -5.7426   16.6367 H   0  0  0  0  0  0  0  0  0  0  0  0
    6.1661   -8.0564   20.1527 H   0  0  0  0  0  0  0  0  0  0  0  0
   -6.9746  -14.0904   25.7678 H   0  0  0  0  0  0  0  0  0  0  0  0
   -8.4935  -12.9931   30.0059 H   0  0  0  0  0  0  0  0  0  0  0  0
   -9.2432  -10.6732   30.5251 H   0  0  0  0  0  0  0  0  0  0  0  0
   -8.7485   -8.8686   28.9225 H   0  0  0  0  0  0  0  0  0  0  0  0
   -7.5089   -9.2377   26.8963 H   0  0  0  0  0  0  0  0  0  0  0  0
  1  2  1  0
  2  3  1  0
  3  4  2  0
  3  5  1  0
  5  6  1  0
  6  7  1  0
  7  8  2  0
  8  9  1  0
  9 10  1  0
 10 11  1  0
  9 12  2  0
 12 13  1  0
  2 14  1  0
 14 15  1  0
 15 16  2  0
 16 17  1  0
 17 18  2  0
 18 19  1  0
 19 20  2  0
 20 21  1  0
 21 22  2  0
 13  7  1  0
 22 14  1  0
 22 17  1  0
  1 23  1  0
  1 24  1  0
  1 25  1  0
  2 26  1  0
  5 27  1  0
  6 28  1  0
  6 29  1  0
 10 30  1  0
 10 31  1  0
 11 32  1  0
 12 33  1  0
 15 34  1  0
 18 35  1  0
 19 36  1  0
 20 37  1  0
 21 38  1  0
M  END
>  <Energy>  (853) 
1876.0321937892279

>  <compound_id>  (853) 
12743

>  <target_id>  (853) 
1

>  <reference_id>  (853) 
94

>  <inspiration_ids>  (853) 
[71, 94]

>  <energy_score>  (853) 
1774.232306817846

>  <distance_score>  (853) 
13.400310865257174

>  <path>  (853) 
/opt/xchem-fragalysis-2/maxwin/BulkDock/SCRATCH/511015/C12743-P94/C12743-P94.minimised.mol

>  <scratch_subdir>  (853) 
/opt/xchem-fragalysis-2/maxwin/BulkDock/SCRATCH/511015/C12743-P94

>  <fragmenstein_runtime>  (853) 
29.603057622909546

>  <fragmenstein_outcome>  (853) 
too moved

>  <fragmenstein_mode>  (853) 
expansion

>  <fragmenstein_error>  (853) 


$$$$
C12744-P71
     RDKit          3D

 37 39  0  0  0  0  0  0  0  0999 V2000
   -2.1053   -9.1504   18.1348 C   0  0  0  0  0  0  0  0  0  0  0  0
   -2.7727   -9.2380   19.4471 C   0  0  0  0  0  0  0  0  0  0  0  0
   -2.1584   -9.1928   20.6763 C   0  0  0  0  0  0  0  0  0  0  0  0
   -3.3510   -9.2437   21.8841 S   0  0  0  0  0  0  0  0  0  0  0  0
   -4.5977   -9.5225   20.7346 C   0  0  0  0  0  0  0  0  0  0  0  0
   -6.0915   -9.7526   21.1509 C   0  0  0  0  0  0  0  0  0  0  0  0
   -6.3502  -10.6968   22.2630 N   0  0  0  0  0  0  0  0  0  0  0  0
   -7.5396  -11.4680   22.6065 C   0  0  0  0  0  0  0  0  0  0  0  0
   -8.6367  -11.4718   22.1196 O   0  0  0  0  0  0  0  0  0  0  0  0
   -7.2891  -12.4099   23.8600 C   0  0  0  0  0  0  0  0  0  0  0  0
   -8.4072  -13.4894   24.1136 C   0  0  0  0  0  0  0  0  0  0  0  0
   -8.1944  -14.5083   25.1441 N   0  0  0  0  0  0  0  0  0  0  0  0
   -7.0714  -15.2839   25.2947 C   0  0  0  0  0  0  0  0  0  0  0  0
   -7.1911  -16.1683   26.2602 N   0  0  0  0  0  0  0  0  0  0  0  0
   -8.4525  -15.9779   26.7537 C   0  0  0  0  0  0  0  0  0  0  0  0
   -9.0916  -16.6344   27.8086 C   0  0  0  0  0  0  0  0  0  0  0  0
  -10.4179  -16.3032   28.1035 C   0  0  0  0  0  0  0  0  0  0  0  0
  -11.0919  -15.3350   27.3674 C   0  0  0  0  0  0  0  0  0  0  0  0
  -10.4631  -14.6582   26.3194 C   0  0  0  0  0  0  0  0  0  0  0  0
   -9.1296  -14.9873   26.0448 C   0  0  0  0  0  0  0  0  0  0  0  0
   -4.1569   -9.4235   19.4865 N   0  0  0  0  0  0  0  0  0  0  0  0
   -2.7506   -8.6256   17.4254 H   0  0  0  0  0  0  0  0  0  0  0  0
   -1.9979  -10.1680   17.7545 H   0  0  0  0  0  0  0  0  0  0  0  0
   -1.1410   -8.6470   18.2045 H   0  0  0  0  0  0  0  0  0  0  0  0
   -1.1073   -9.0819   20.9046 H   0  0  0  0  0  0  0  0  0  0  0  0
   -6.6496  -10.1147   20.2809 H   0  0  0  0  0  0  0  0  0  0  0  0
   -6.5197   -8.7891   21.4478 H   0  0  0  0  0  0  0  0  0  0  0  0
   -5.5695  -11.0138   22.8377 H   0  0  0  0  0  0  0  0  0  0  0  0
   -7.2185  -11.7653   24.7428 H   0  0  0  0  0  0  0  0  0  0  0  0
   -6.3306  -12.9162   23.7389 H   0  0  0  0  0  0  0  0  0  0  0  0
   -9.3384  -12.9653   24.3546 H   0  0  0  0  0  0  0  0  0  0  0  0
   -8.5830  -14.0474   23.1854 H   0  0  0  0  0  0  0  0  0  0  0  0
   -6.1944  -15.1586   24.6729 H   0  0  0  0  0  0  0  0  0  0  0  0
   -8.5332  -17.3771   28.3587 H   0  0  0  0  0  0  0  0  0  0  0  0
  -10.9509  -16.8022   28.9042 H   0  0  0  0  0  0  0  0  0  0  0  0
  -12.1224  -15.0901   27.6210 H   0  0  0  0  0  0  0  0  0  0  0  0
  -10.9905  -13.8892   25.7641 H   0  0  0  0  0  0  0  0  0  0  0  0
  1  2  1  0
  2  3  2  0
  3  4  1  0
  4  5  1  0
  5  6  1  0
  6  7  1  0
  7  8  1  0
  8  9  2  0
  8 10  1  0
 10 11  1  0
 11 12  1  0
 12 13  1  0
 13 14  2  0
 14 15  1  0
 15 16  2  0
 16 17  1  0
 17 18  2  0
 18 19  1  0
 19 20  2  0
  5 21  2  0
 21  2  1  0
 20 12  1  0
 20 15  1  0
  1 22  1  0
  1 23  1  0
  1 24  1  0
  3 25  1  0
  6 26  1  0
  6 27  1  0
  7 28  1  0
 10 29  1  0
 10 30  1  0
 11 31  1  0
 11 32  1  0
 13 33  1  0
 16 34  1  0
 17 35  1  0
 18 36  1  0
 19 37  1  0
M  END
>  <Energy>  (854) 
14.317806308841739

>  <compound_id>  (854) 
12744

>  <target_id>  (854) 
1

>  <reference_id>  (854) 
71

>  <inspiration_ids>  (854) 
[71, 94]

>  <energy_score>  (854) 
-55.473051674689145

>  <distance_score>  (854) 
15.06902074504047

>  <path>  (854) 
/opt/xchem-fragalysis-2/maxwin/BulkDock/SCRATCH/511015/C12744-P71/C12744-P71.minimised.mol

>  <scratch_subdir>  (854) 
/opt/xchem-fragalysis-2/maxwin/BulkDock/SCRATCH/511015/C12744-P71

>  <fragmenstein_runtime>  (854) 
22.331907749176025

>  <fragmenstein_outcome>  (854) 
too moved

>  <fragmenstein_mode>  (854) 
expansion

>  <fragmenstein_error>  (854) 


$$$$
C12744-P94
     RDKit          3D

 37 39  0  0  0  0  0  0  0  0999 V2000
   -3.9398   -9.7741   20.0678 C   0  0  0  0  0  0  0  0  0  0  0  0
   -5.0361   -9.8367   21.1059 C   0  0  0  0  0  0  0  0  0  0  0  0
   -5.2169   -8.9059   22.1007 C   0  0  0  0  0  0  0  0  0  0  0  0
   -6.4080   -9.4426   23.2193 S   0  0  0  0  0  0  0  0  0  0  0  0
   -6.5834  -10.9690   22.3958 C   0  0  0  0  0  0  0  0  0  0  0  0
   -7.6239  -12.1015   22.9624 C   0  0  0  0  0  0  0  0  0  0  0  0
   -7.3547  -13.2124   24.0468 N   0  0  0  0  0  0  0  0  0  0  0  0
   -8.3087  -14.1458   24.7640 C   0  0  0  0  0  0  0  0  0  0  0  0
   -9.5143  -14.2069   24.7347 O   0  0  0  0  0  0  0  0  0  0  0  0
   -7.6450  -15.3371   25.7333 C   0  0  0  0  0  0  0  0  0  0  0  0
   -8.7362  -16.3107   26.6139 C   0  0  0  0  0  0  0  0  0  0  0  0
   -8.3575  -17.5691   27.3596 N   0  0  0  0  0  0  0  0  0  0  0  0
   -7.1934  -17.7525   28.0332 C   0  0  0  0  0  0  0  0  0  0  0  0
   -7.2632  -18.8467   28.7468 N   0  0  0  0  0  0  0  0  0  0  0  0
   -8.5150  -19.5158   28.4928 C   0  0  0  0  0  0  0  0  0  0  0  0
  -10.0072  -20.5316   29.4287 C   0  0  0  0  0  0  0  0  0  0  0  0
  -10.9355  -21.5292   29.2343 C   0  0  0  0  0  0  0  0  0  0  0  0
  -10.4623  -21.8432   28.0962 C   0  0  0  0  0  0  0  0  0  0  0  0
   -9.5460  -20.6259   27.4816 C   0  0  0  0  0  0  0  0  0  0  0  0
   -9.2100  -18.7072   27.7277 C   0  0  0  0  0  0  0  0  0  0  0  0
   -5.9695  -10.9185   21.1916 N   0  0  0  0  0  0  0  0  0  0  0  0
   -2.9602   -9.8464   20.5505 H   0  0  0  0  0  0  0  0  0  0  0  0
   -3.9964   -8.8334   19.5120 H   0  0  0  0  0  0  0  0  0  0  0  0
   -4.0429  -10.6040   19.3626 H   0  0  0  0  0  0  0  0  0  0  0  0
   -4.6967   -7.9731   22.2444 H   0  0  0  0  0  0  0  0  0  0  0  0
   -7.9516  -12.6641   22.0797 H   0  0  0  0  0  0  0  0  0  0  0  0
   -8.5102  -11.5678   23.3275 H   0  0  0  0  0  0  0  0  0  0  0  0
   -6.4011  -13.4973   24.2385 H   0  0  0  0  0  0  0  0  0  0  0  0
   -6.9718  -14.8524   26.4473 H   0  0  0  0  0  0  0  0  0  0  0  0
   -7.0683  -15.9984   25.0783 H   0  0  0  0  0  0  0  0  0  0  0  0
   -9.5218  -16.6143   25.9151 H   0  0  0  0  0  0  0  0  0  0  0  0
   -9.1965  -15.6694   27.3754 H   0  0  0  0  0  0  0  0  0  0  0  0
   -6.3639  -17.0590   28.0182 H   0  0  0  0  0  0  0  0  0  0  0  0
  -10.1621  -20.5156   30.5605 H   0  0  0  0  0  0  0  0  0  0  0  0
  -11.6228  -22.0105   29.8934 H   0  0  0  0  0  0  0  0  0  0  0  0
  -10.8432  -22.6658   27.4979 H   0  0  0  0  0  0  0  0  0  0  0  0
  -10.2366  -20.8337   26.5992 H   0  0  0  0  0  0  0  0  0  0  0  0
  1  2  1  0
  2  3  2  0
  3  4  1  0
  4  5  1  0
  5  6  1  0
  6  7  1  0
  7  8  1  0
  8  9  2  0
  8 10  1  0
 10 11  1  0
 11 12  1  0
 12 13  1  0
 13 14  2  0
 14 15  1  0
 15 16  2  0
 16 17  1  0
 17 18  2  0
 18 19  1  0
 19 20  2  0
  5 21  2  0
 21  2  1  0
 20 12  1  0
 20 15  1  0
  1 22  1  0
  1 23  1  0
  1 24  1  0
  3 25  1  0
  6 26  1  0
  6 27  1  0
  7 28  1  0
 10 29  1  0
 10 30  1  0
 11 31  1  0
 11 32  1  0
 13 33  1  0
 16 34  1  0
 17 35  1  0
 18 36  1  0
 19 37  1  0
M  END
>  <Energy>  (855) 
564.67781629576427

>  <compound_id>  (855) 
12744

>  <target_id>  (855) 
1

>  <reference_id>  (855) 
94

>  <inspiration_ids>  (855) 
[71, 94]

>  <energy_score>  (855) 
494.8869583122293

>  <distance_score>  (855) 
15.221240538670957

>  <path>  (855) 
/opt/xchem-fragalysis-2/maxwin/BulkDock/SCRATCH/511015/C12744-P94/C12744-P94.minimised.mol

>  <scratch_subdir>  (855) 
/opt/xchem-fragalysis-2/maxwin/BulkDock/SCRATCH/511015/C12744-P94

>  <fragmenstein_runtime>  (855) 
23.635789155960083

>  <fragmenstein_outcome>  (855) 
too moved

>  <fragmenstein_mode>  (855) 
expansion

>  <fragmenstein_error>  (855) 


$$$$
C12745-P71
     RDKit          3D

 37 39  0  0  0  0  0  0  0  0999 V2000
    7.9890  -11.4585   24.8279 C   0  0  0  0  0  0  0  0  0  0  0  0
    7.2842  -11.9850   26.0498 C   0  0  0  0  0  0  0  0  0  0  0  0
    7.1837  -11.3452   27.2655 C   0  0  0  0  0  0  0  0  0  0  0  0
    6.2863  -12.3054   28.3828 S   0  0  0  0  0  0  0  0  0  0  0  0
    6.0255  -13.5302   27.1900 C   0  0  0  0  0  0  0  0  0  0  0  0
    5.3213  -14.9083   27.5283 C   0  0  0  0  0  0  0  0  0  0  0  0
    3.9952  -15.0574   28.2520 N   0  0  0  0  0  0  0  0  0  0  0  0
    3.1733  -16.2785   28.5514 C   0  0  0  0  0  0  0  0  0  0  0  0
    3.4077  -17.4443   28.3585 O   0  0  0  0  0  0  0  0  0  0  0  0
    1.7360  -16.0028   29.3157 C   0  0  0  0  0  0  0  0  0  0  0  0
    0.9555  -14.8048   28.7999 C   0  0  0  0  0  0  0  0  0  0  0  0
    0.8256  -17.2304   29.5395 N   0  0  0  0  0  0  0  0  0  0  0  0
    1.2062  -18.2542   30.3973 C   0  0  0  0  0  0  0  0  0  0  0  0
    0.2508  -19.1172   30.6568 N   0  0  0  0  0  0  0  0  0  0  0  0
   -0.8284  -18.6882   29.9404 C   0  0  0  0  0  0  0  0  0  0  0  0
   -2.1137  -19.2733   29.8799 C   0  0  0  0  0  0  0  0  0  0  0  0
   -3.1035  -18.6824   29.0969 C   0  0  0  0  0  0  0  0  0  0  0  0
   -2.8065  -17.5272   28.3797 C   0  0  0  0  0  0  0  0  0  0  0  0
   -1.5261  -16.9268   28.4272 C   0  0  0  0  0  0  0  0  0  0  0  0
   -0.5212  -17.5138   29.2242 C   0  0  0  0  0  0  0  0  0  0  0  0
    6.6304  -13.2322   26.0338 N   0  0  0  0  0  0  0  0  0  0  0  0
    8.7047  -12.2010   24.4631 H   0  0  0  0  0  0  0  0  0  0  0  0
    8.5304  -10.5342   25.0513 H   0  0  0  0  0  0  0  0  0  0  0  0
    7.2613  -11.2535   24.0388 H   0  0  0  0  0  0  0  0  0  0  0  0
    7.5909  -10.3879   27.5581 H   0  0  0  0  0  0  0  0  0  0  0  0
    5.1898  -15.4420   26.5793 H   0  0  0  0  0  0  0  0  0  0  0  0
    6.0368  -15.4982   28.1141 H   0  0  0  0  0  0  0  0  0  0  0  0
    3.5272  -14.2429   28.6223 H   0  0  0  0  0  0  0  0  0  0  0  0
    2.0371  -15.7655   30.3479 H   0  0  0  0  0  0  0  0  0  0  0  0
    1.5549  -13.8908   28.8110 H   0  0  0  0  0  0  0  0  0  0  0  0
    0.0770  -14.6106   29.4248 H   0  0  0  0  0  0  0  0  0  0  0  0
    0.6154  -14.9587   27.7744 H   0  0  0  0  0  0  0  0  0  0  0  0
    2.2084  -18.3024   30.8042 H   0  0  0  0  0  0  0  0  0  0  0  0
   -2.3190  -20.1691   30.4564 H   0  0  0  0  0  0  0  0  0  0  0  0
   -4.0988  -19.1172   29.0630 H   0  0  0  0  0  0  0  0  0  0  0  0
   -3.5811  -17.0672   27.7694 H   0  0  0  0  0  0  0  0  0  0  0  0
   -1.3414  -16.0325   27.8433 H   0  0  0  0  0  0  0  0  0  0  0  0
  1  2  1  0
  2  3  2  0
  3  4  1  0
  4  5  1  0
  5  6  1  0
  6  7  1  0
  7  8  1  0
  8  9  2  0
  8 10  1  0
 10 11  1  0
 10 12  1  0
 12 13  1  0
 13 14  2  0
 14 15  1  0
 15 16  2  0
 16 17  1  0
 17 18  2  0
 18 19  1  0
 19 20  2  0
  5 21  2  0
 21  2  1  0
 20 12  1  0
 20 15  1  0
  1 22  1  0
  1 23  1  0
  1 24  1  0
  3 25  1  0
  6 26  1  0
  6 27  1  0
  7 28  1  0
 10 29  1  0
 11 30  1  0
 11 31  1  0
 11 32  1  0
 13 33  1  0
 16 34  1  0
 17 35  1  0
 18 36  1  0
 19 37  1  0
M  END
>  <Energy>  (856) 
67.382372339880973

>  <compound_id>  (856) 
12745

>  <target_id>  (856) 
1

>  <reference_id>  (856) 
71

>  <inspiration_ids>  (856) 
[71, 94]

>  <energy_score>  (856) 
-17.56301723105298

>  <distance_score>  (856) 
14.441304769079313

>  <path>  (856) 
/opt/xchem-fragalysis-2/maxwin/BulkDock/SCRATCH/511015/C12745-P71/C12745-P71.minimised.mol

>  <scratch_subdir>  (856) 
/opt/xchem-fragalysis-2/maxwin/BulkDock/SCRATCH/511015/C12745-P71

>  <fragmenstein_runtime>  (856) 
23.888832092285156

>  <fragmenstein_outcome>  (856) 
too moved

>  <fragmenstein_mode>  (856) 
expansion

>  <fragmenstein_error>  (856) 


$$$$
C12745-P94
     RDKit          3D

 37 39  0  0  0  0  0  0  0  0999 V2000
    7.9587  -11.5329   24.7959 C   0  0  0  0  0  0  0  0  0  0  0  0
    7.2483  -12.0642   26.0127 C   0  0  0  0  0  0  0  0  0  0  0  0
    7.1387  -11.4208   27.2257 C   0  0  0  0  0  0  0  0  0  0  0  0
    6.2536  -12.3871   28.3458 S   0  0  0  0  0  0  0  0  0  0  0  0
    5.9966  -13.6159   27.1527 C   0  0  0  0  0  0  0  0  0  0  0  0
    5.3144  -14.9993   27.5122 C   0  0  0  0  0  0  0  0  0  0  0  0
    3.9245  -15.1694   28.1031 N   0  0  0  0  0  0  0  0  0  0  0  0
    3.2162  -16.3919   28.6020 C   0  0  0  0  0  0  0  0  0  0  0  0
    3.6084  -17.5250   28.7293 O   0  0  0  0  0  0  0  0  0  0  0  0
    1.6367  -16.2051   29.1440 C   0  0  0  0  0  0  0  0  0  0  0  0
    0.9300  -14.9336   28.7059 C   0  0  0  0  0  0  0  0  0  0  0  0
    0.6760  -17.4004   28.9445 N   0  0  0  0  0  0  0  0  0  0  0  0
    0.8791  -18.4481   28.0719 C   0  0  0  0  0  0  0  0  0  0  0  0
   -0.1065  -19.3198   28.0492 N   0  0  0  0  0  0  0  0  0  0  0  0
   -1.0344  -18.8488   28.9298 C   0  0  0  0  0  0  0  0  0  0  0  0
   -2.2884  -19.4112   29.2559 C   0  0  0  0  0  0  0  0  0  0  0  0
   -3.1111  -18.7598   30.1722 C   0  0  0  0  0  0  0  0  0  0  0  0
   -2.6759  -17.5721   30.7577 C   0  0  0  0  0  0  0  0  0  0  0  0
   -1.4181  -17.0002   30.4529 C   0  0  0  0  0  0  0  0  0  0  0  0
   -0.5928  -17.6508   29.5172 C   0  0  0  0  0  0  0  0  0  0  0  0
    6.6014  -13.3175   25.9961 N   0  0  0  0  0  0  0  0  0  0  0  0
    7.2315  -11.2844   24.0193 H   0  0  0  0  0  0  0  0  0  0  0  0
    8.5329  -10.6328   25.0358 H   0  0  0  0  0  0  0  0  0  0  0  0
    8.6470  -12.2889   24.4071 H   0  0  0  0  0  0  0  0  0  0  0  0
    7.5367  -10.4587   27.5159 H   0  0  0  0  0  0  0  0  0  0  0  0
    5.9896  -15.5283   28.1959 H   0  0  0  0  0  0  0  0  0  0  0  0
    5.2956  -15.5891   26.5874 H   0  0  0  0  0  0  0  0  0  0  0  0
    3.3188  -14.3692   28.2076 H   0  0  0  0  0  0  0  0  0  0  0  0
    1.7418  -16.1835   30.2385 H   0  0  0  0  0  0  0  0  0  0  0  0
   -0.0170  -14.8004   29.2374 H   0  0  0  0  0  0  0  0  0  0  0  0
    0.6907  -14.9601   27.6417 H   0  0  0  0  0  0  0  0  0  0  0  0
    1.5225  -14.0391   28.9125 H   0  0  0  0  0  0  0  0  0  0  0  0
    1.7721  -18.5324   27.4661 H   0  0  0  0  0  0  0  0  0  0  0  0
   -2.5984  -20.3379   28.7863 H   0  0  0  0  0  0  0  0  0  0  0  0
   -4.0814  -19.1785   30.4330 H   0  0  0  0  0  0  0  0  0  0  0  0
   -3.3215  -17.0746   31.4802 H   0  0  0  0  0  0  0  0  0  0  0  0
   -1.1087  -16.0813   30.9391 H   0  0  0  0  0  0  0  0  0  0  0  0
  1  2  1  0
  2  3  2  0
  3  4  1  0
  4  5  1  0
  5  6  1  0
  6  7  1  0
  7  8  1  0
  8  9  2  0
  8 10  1  0
 10 11  1  0
 10 12  1  0
 12 13  1  0
 13 14  2  0
 14 15  1  0
 15 16  2  0
 16 17  1  0
 17 18  2  0
 18 19  1  0
 19 20  2  0
  5 21  2  0
 21  2  1  0
 20 12  1  0
 20 15  1  0
  1 22  1  0
  1 23  1  0
  1 24  1  0
  3 25  1  0
  6 26  1  0
  6 27  1  0
  7 28  1  0
 10 29  1  0
 11 30  1  0
 11 31  1  0
 11 32  1  0
 13 33  1  0
 16 34  1  0
 17 35  1  0
 18 36  1  0
 19 37  1  0
M  END
>  <Energy>  (857) 
68.056185818403165

>  <compound_id>  (857) 
12745

>  <target_id>  (857) 
1

>  <reference_id>  (857) 
94

>  <inspiration_ids>  (857) 
[71, 94]

>  <energy_score>  (857) 
-16.88920375252752

>  <distance_score>  (857) 
14.478532770740888

>  <path>  (857) 
/opt/xchem-fragalysis-2/maxwin/BulkDock/SCRATCH/511015/C12745-P94/C12745-P94.minimised.mol

>  <scratch_subdir>  (857) 
/opt/xchem-fragalysis-2/maxwin/BulkDock/SCRATCH/511015/C12745-P94

>  <fragmenstein_runtime>  (857) 
25.16058659553528

>  <fragmenstein_outcome>  (857) 
too moved

>  <fragmenstein_mode>  (857) 
expansion

>  <fragmenstein_error>  (857) 


$$$$
C12746-P71
     RDKit          3D

 40 42  0  0  0  0  0  0  0  0999 V2000
    2.8960   -7.2410   13.8104 C   0  0  0  0  0  0  0  0  0  0  0  0
    1.4712   -6.9763   13.2995 C   0  0  0  0  0  0  0  0  0  0  0  0
    0.5953   -8.2123   13.0671 C   0  0  0  0  0  0  0  0  0  0  0  0
    0.9373   -9.3132   12.3099 C   0  0  0  0  0  0  0  0  0  0  0  0
   -0.2903  -10.5237   12.3837 S   0  0  0  0  0  0  0  0  0  0  0  0
   -1.2728   -9.5554   13.4711 C   0  0  0  0  0  0  0  0  0  0  0  0
   -2.7960  -10.1565   13.9000 C   0  0  0  0  0  0  0  0  0  0  0  0
   -3.2271  -10.6286   15.3414 N   0  0  0  0  0  0  0  0  0  0  0  0
   -3.7440  -11.9715   15.8355 C   0  0  0  0  0  0  0  0  0  0  0  0
   -3.8722  -13.0219   15.2541 O   0  0  0  0  0  0  0  0  0  0  0  0
   -4.2938  -12.0027   17.4453 C   0  0  0  0  0  0  0  0  0  0  0  0
   -3.4246  -11.1721   18.3856 C   0  0  0  0  0  0  0  0  0  0  0  0
   -4.5116  -13.3911   18.1440 N   0  0  0  0  0  0  0  0  0  0  0  0
   -3.6061  -14.4357   18.0925 C   0  0  0  0  0  0  0  0  0  0  0  0
   -3.8879  -15.4322   18.9083 N   0  0  0  0  0  0  0  0  0  0  0  0
   -5.0527  -15.0852   19.5276 C   0  0  0  0  0  0  0  0  0  0  0  0
   -5.7845  -15.8281   20.4854 C   0  0  0  0  0  0  0  0  0  0  0  0
   -6.9290  -15.2705   21.0514 C   0  0  0  0  0  0  0  0  0  0  0  0
   -7.3259  -13.9908   20.6649 C   0  0  0  0  0  0  0  0  0  0  0  0
   -6.6109  -13.2367   19.7003 C   0  0  0  0  0  0  0  0  0  0  0  0
   -5.4625  -13.8023   19.1156 C   0  0  0  0  0  0  0  0  0  0  0  0
   -0.7140   -8.3357   13.6347 N   0  0  0  0  0  0  0  0  0  0  0  0
    2.8743   -7.7951   14.7526 H   0  0  0  0  0  0  0  0  0  0  0  0
    3.4695   -7.8280   13.0861 H   0  0  0  0  0  0  0  0  0  0  0  0
    3.4179   -6.2941   13.9766 H   0  0  0  0  0  0  0  0  0  0  0  0
    0.9550   -6.3150   14.0015 H   0  0  0  0  0  0  0  0  0  0  0  0
    1.5336   -6.4325   12.3488 H   0  0  0  0  0  0  0  0  0  0  0  0
    1.8403   -9.4861   11.7428 H   0  0  0  0  0  0  0  0  0  0  0  0
   -2.9983  -11.0080   13.2404 H   0  0  0  0  0  0  0  0  0  0  0  0
   -3.4946   -9.3503   13.6471 H   0  0  0  0  0  0  0  0  0  0  0  0
   -3.1777   -9.9833   16.1178 H   0  0  0  0  0  0  0  0  0  0  0  0
   -5.3139  -11.5994   17.4099 H   0  0  0  0  0  0  0  0  0  0  0  0
   -3.7720  -11.2432   19.4223 H   0  0  0  0  0  0  0  0  0  0  0  0
   -2.3846  -11.5103   18.3610 H   0  0  0  0  0  0  0  0  0  0  0  0
   -3.4394  -10.1124   18.1168 H   0  0  0  0  0  0  0  0  0  0  0  0
   -2.7480  -14.4024   17.4328 H   0  0  0  0  0  0  0  0  0  0  0  0
   -5.4396  -16.8166   20.7685 H   0  0  0  0  0  0  0  0  0  0  0  0
   -7.5014  -15.8240   21.7894 H   0  0  0  0  0  0  0  0  0  0  0  0
   -8.2137  -13.5492   21.1158 H   0  0  0  0  0  0  0  0  0  0  0  0
   -6.9509  -12.2433   19.4239 H   0  0  0  0  0  0  0  0  0  0  0  0
  1  2  1  0
  2  3  1  0
  3  4  2  0
  4  5  1  0
  5  6  1  0
  6  7  1  0
  7  8  1  0
  8  9  1  0
  9 10  2  0
  9 11  1  0
 11 12  1  0
 11 13  1  0
 13 14  1  0
 14 15  2  0
 15 16  1  0
 16 17  2  0
 17 18  1  0
 18 19  2  0
 19 20  1  0
 20 21  2  0
  6 22  2  0
 22  3  1  0
 21 13  1  0
 21 16  1  0
  1 23  1  0
  1 24  1  0
  1 25  1  0
  2 26  1  0
  2 27  1  0
  4 28  1  0
  7 29  1  0
  7 30  1  0
  8 31  1  0
 11 32  1  0
 12 33  1  0
 12 34  1  0
 12 35  1  0
 14 36  1  0
 17 37  1  0
 18 38  1  0
 19 39  1  0
 20 40  1  0
M  END
>  <Energy>  (858) 
84.240297602558471

>  <compound_id>  (858) 
12746

>  <target_id>  (858) 
1

>  <reference_id>  (858) 
71

>  <inspiration_ids>  (858) 
[71, 94]

>  <energy_score>  (858) 
12.738779430097168

>  <distance_score>  (858) 
16.503450820262216

>  <path>  (858) 
/opt/xchem-fragalysis-2/maxwin/BulkDock/SCRATCH/511015/C12746-P71/C12746-P71.minimised.mol

>  <scratch_subdir>  (858) 
/opt/xchem-fragalysis-2/maxwin/BulkDock/SCRATCH/511015/C12746-P71

>  <fragmenstein_runtime>  (858) 
31.142173767089844

>  <fragmenstein_outcome>  (858) 
too moved

>  <fragmenstein_mode>  (858) 
expansion

>  <fragmenstein_error>  (858) 


$$$$
C12746-P94
     RDKit          3D

 40 42  0  0  0  0  0  0  0  0999 V2000
   -0.8101   -6.7089   25.0634 C   0  0  0  0  0  0  0  0  0  0  0  0
   -0.5164   -6.5321   26.5393 C   0  0  0  0  0  0  0  0  0  0  0  0
   -1.6547   -5.9551   27.3364 C   0  0  0  0  0  0  0  0  0  0  0  0
   -1.5538   -4.8532   28.1551 C   0  0  0  0  0  0  0  0  0  0  0  0
   -3.0544   -4.5513   28.9124 S   0  0  0  0  0  0  0  0  0  0  0  0
   -3.7628   -5.9896   28.2029 C   0  0  0  0  0  0  0  0  0  0  0  0
   -5.2497   -6.3532   28.6578 C   0  0  0  0  0  0  0  0  0  0  0  0
   -5.9492   -7.6767   28.4765 N   0  0  0  0  0  0  0  0  0  0  0  0
   -6.8219   -8.4521   29.4015 C   0  0  0  0  0  0  0  0  0  0  0  0
   -7.1175   -8.2484   30.5533 O   0  0  0  0  0  0  0  0  0  0  0  0
   -7.6295   -9.7612   28.7371 C   0  0  0  0  0  0  0  0  0  0  0  0
   -7.7465   -9.7394   27.2159 C   0  0  0  0  0  0  0  0  0  0  0  0
   -7.5247  -11.1474   29.3736 N   0  0  0  0  0  0  0  0  0  0  0  0
   -7.2887  -11.3609   30.7206 C   0  0  0  0  0  0  0  0  0  0  0  0
   -7.2889  -12.6298   31.0663 N   0  0  0  0  0  0  0  0  0  0  0  0
   -7.6157  -13.3135   29.9316 C   0  0  0  0  0  0  0  0  0  0  0  0
   -7.7567  -14.7088   29.7651 C   0  0  0  0  0  0  0  0  0  0  0  0
   -8.1574  -15.2221   28.5309 C   0  0  0  0  0  0  0  0  0  0  0  0
   -8.4152  -14.3489   27.4806 C   0  0  0  0  0  0  0  0  0  0  0  0
   -8.2509  -12.9529   27.6206 C   0  0  0  0  0  0  0  0  0  0  0  0
   -7.8292  -12.4293   28.8602 C   0  0  0  0  0  0  0  0  0  0  0  0
   -2.9377   -6.5193   27.3086 N   0  0  0  0  0  0  0  0  0  0  0  0
    0.0404   -6.5749   24.4011 H   0  0  0  0  0  0  0  0  0  0  0  0
   -1.1558   -7.7229   24.9151 H   0  0  0  0  0  0  0  0  0  0  0  0
   -1.6153   -6.0572   24.7194 H   0  0  0  0  0  0  0  0  0  0  0  0
    0.3240   -5.8606   26.6944 H   0  0  0  0  0  0  0  0  0  0  0  0
   -0.2373   -7.4930   26.9858 H   0  0  0  0  0  0  0  0  0  0  0  0
   -0.6966   -4.2208   28.3441 H   0  0  0  0  0  0  0  0  0  0  0  0
   -5.3225   -6.1383   29.7311 H   0  0  0  0  0  0  0  0  0  0  0  0
   -5.8979   -5.6344   28.1410 H   0  0  0  0  0  0  0  0  0  0  0  0
   -5.8574   -8.1808   27.6091 H   0  0  0  0  0  0  0  0  0  0  0  0
   -8.6582   -9.5133   29.0586 H   0  0  0  0  0  0  0  0  0  0  0  0
   -8.7054  -10.1632   26.8995 H   0  0  0  0  0  0  0  0  0  0  0  0
   -6.9581  -10.3169   26.7381 H   0  0  0  0  0  0  0  0  0  0  0  0
   -7.7262   -8.7217   26.8150 H   0  0  0  0  0  0  0  0  0  0  0  0
   -7.1145  -10.5440   31.4082 H   0  0  0  0  0  0  0  0  0  0  0  0
   -7.5476  -15.3603   30.6069 H   0  0  0  0  0  0  0  0  0  0  0  0
   -8.2610  -16.2941   28.3955 H   0  0  0  0  0  0  0  0  0  0  0  0
   -8.7294  -14.7471   26.5181 H   0  0  0  0  0  0  0  0  0  0  0  0
   -8.4343  -12.3185   26.7622 H   0  0  0  0  0  0  0  0  0  0  0  0
  1  2  1  0
  2  3  1  0
  3  4  2  0
  4  5  1  0
  5  6  1  0
  6  7  1  0
  7  8  1  0
  8  9  1  0
  9 10  2  0
  9 11  1  0
 11 12  1  0
 11 13  1  0
 13 14  1  0
 14 15  2  0
 15 16  1  0
 16 17  2  0
 17 18  1  0
 18 19  2  0
 19 20  1  0
 20 21  2  0
  6 22  2  0
 22  3  1  0
 21 13  1  0
 21 16  1  0
  1 23  1  0
  1 24  1  0
  1 25  1  0
  2 26  1  0
  2 27  1  0
  4 28  1  0
  7 29  1  0
  7 30  1  0
  8 31  1  0
 11 32  1  0
 12 33  1  0
 12 34  1  0
 12 35  1  0
 14 36  1  0
 17 37  1  0
 18 38  1  0
 19 39  1  0
 20 40  1  0
M  END
>  <Energy>  (859) 
75.95280014380053

>  <compound_id>  (859) 
12746

>  <target_id>  (859) 
1

>  <reference_id>  (859) 
94

>  <inspiration_ids>  (859) 
[71, 94]

>  <energy_score>  (859) 
4.451281971340109

>  <distance_score>  (859) 
15.93758488621328

>  <path>  (859) 
/opt/xchem-fragalysis-2/maxwin/BulkDock/SCRATCH/511015/C12746-P94/C12746-P94.minimised.mol

>  <scratch_subdir>  (859) 
/opt/xchem-fragalysis-2/maxwin/BulkDock/SCRATCH/511015/C12746-P94

>  <fragmenstein_runtime>  (859) 
21.759385108947754

>  <fragmenstein_outcome>  (859) 
too moved

>  <fragmenstein_mode>  (859) 
expansion

>  <fragmenstein_error>  (859) 


$$$$
C12750-P71
     RDKit          3D

 35 37  0  0  0  0  0  0  0  0999 V2000
    5.1869  -16.8916   22.8410 C   0  0  0  0  0  0  0  0  0  0  0  0
    4.4301  -16.3728   23.9293 O   0  0  0  0  0  0  0  0  0  0  0  0
    3.1096  -16.3310   23.7256 C   0  0  0  0  0  0  0  0  0  0  0  0
    2.3448  -16.0515   22.6097 C   0  0  0  0  0  0  0  0  0  0  0  0
    0.9701  -16.2414   22.7540 N   0  0  0  0  0  0  0  0  0  0  0  0
    0.7070  -16.6818   23.9683 C   0  0  0  0  0  0  0  0  0  0  0  0
   -0.5576  -17.0665   24.3583 N   0  0  0  0  0  0  0  0  0  0  0  0
   -1.0168  -17.8217   25.5374 C   0  0  0  0  0  0  0  0  0  0  0  0
   -0.4120  -18.2225   26.4939 O   0  0  0  0  0  0  0  0  0  0  0  0
   -2.5776  -18.0067   25.4684 C   0  0  0  0  0  0  0  0  0  0  0  0
   -3.2681  -16.6924   25.8418 C   0  0  0  0  0  0  0  0  0  0  0  0
   -3.1685  -19.1376   26.2349 N   0  0  0  0  0  0  0  0  0  0  0  0
   -3.2231  -19.2776   27.6021 C   0  0  0  0  0  0  0  0  0  0  0  0
   -3.9463  -20.3145   27.9722 N   0  0  0  0  0  0  0  0  0  0  0  0
   -4.3683  -20.8967   26.8100 C   0  0  0  0  0  0  0  0  0  0  0  0
   -5.1344  -22.0559   26.6177 C   0  0  0  0  0  0  0  0  0  0  0  0
   -5.4268  -22.4696   25.3154 C   0  0  0  0  0  0  0  0  0  0  0  0
   -5.0075  -21.7187   24.2240 C   0  0  0  0  0  0  0  0  0  0  0  0
   -4.2648  -20.5465   24.3962 C   0  0  0  0  0  0  0  0  0  0  0  0
   -3.9314  -20.1690   25.7039 C   0  0  0  0  0  0  0  0  0  0  0  0
    2.0408  -16.7037   25.0240 S   0  0  0  0  0  0  0  0  0  0  0  0
    4.8663  -17.9104   22.5974 H   0  0  0  0  0  0  0  0  0  0  0  0
    5.1119  -16.2512   21.9566 H   0  0  0  0  0  0  0  0  0  0  0  0
    6.2369  -16.9281   23.1459 H   0  0  0  0  0  0  0  0  0  0  0  0
    2.7279  -15.7267   21.6514 H   0  0  0  0  0  0  0  0  0  0  0  0
   -1.3224  -16.9690   23.7087 H   0  0  0  0  0  0  0  0  0  0  0  0
   -2.8182  -18.2258   24.4217 H   0  0  0  0  0  0  0  0  0  0  0  0
   -2.9511  -15.8773   25.1834 H   0  0  0  0  0  0  0  0  0  0  0  0
   -4.3573  -16.7824   25.7655 H   0  0  0  0  0  0  0  0  0  0  0  0
   -3.0250  -16.3940   26.8677 H   0  0  0  0  0  0  0  0  0  0  0  0
   -2.7178  -18.5963   28.2760 H   0  0  0  0  0  0  0  0  0  0  0  0
   -5.4727  -22.6234   27.4712 H   0  0  0  0  0  0  0  0  0  0  0  0
   -6.0043  -23.3698   25.1378 H   0  0  0  0  0  0  0  0  0  0  0  0
   -5.2555  -22.0537   23.2188 H   0  0  0  0  0  0  0  0  0  0  0  0
   -3.9288  -19.9876   23.5299 H   0  0  0  0  0  0  0  0  0  0  0  0
  1  2  1  0
  2  3  1  0
  3  4  2  0
  4  5  1  0
  5  6  2  0
  6  7  1  0
  7  8  1  0
  8  9  2  0
  8 10  1  0
 10 11  1  0
 10 12  1  0
 12 13  1  0
 13 14  2  0
 14 15  1  0
 15 16  2  0
 16 17  1  0
 17 18  2  0
 18 19  1  0
 19 20  2  0
  6 21  1  0
 21  3  1  0
 20 12  1  0
 20 15  1  0
  1 22  1  0
  1 23  1  0
  1 24  1  0
  4 25  1  0
  7 26  1  0
 10 27  1  0
 11 28  1  0
 11 29  1  0
 11 30  1  0
 13 31  1  0
 16 32  1  0
 17 33  1  0
 18 34  1  0
 19 35  1  0
M  END
>  <Energy>  (860) 
13.381682097108909

>  <compound_id>  (860) 
12750

>  <target_id>  (860) 
1

>  <reference_id>  (860) 
71

>  <inspiration_ids>  (860) 
[71, 94]

>  <energy_score>  (860) 
-58.714565990108525

>  <distance_score>  (860) 
14.75871137903088

>  <path>  (860) 
/opt/xchem-fragalysis-2/maxwin/BulkDock/SCRATCH/511015/C12750-P71/C12750-P71.minimised.mol

>  <scratch_subdir>  (860) 
/opt/xchem-fragalysis-2/maxwin/BulkDock/SCRATCH/511015/C12750-P71

>  <fragmenstein_runtime>  (860) 
17.53262209892273

>  <fragmenstein_outcome>  (860) 
too moved

>  <fragmenstein_mode>  (860) 
expansion

>  <fragmenstein_error>  (860) 


$$$$
C12750-P94
     RDKit          3D

 35 37  0  0  0  0  0  0  0  0999 V2000
   -4.1037   -9.0339   20.0656 C   0  0  0  0  0  0  0  0  0  0  0  0
   -3.4039   -9.9357   19.2178 O   0  0  0  0  0  0  0  0  0  0  0  0
   -3.5144  -11.2460   19.4719 C   0  0  0  0  0  0  0  0  0  0  0  0
   -2.7715  -12.2588   18.9011 C   0  0  0  0  0  0  0  0  0  0  0  0
   -3.0688  -13.5595   19.3206 N   0  0  0  0  0  0  0  0  0  0  0  0
   -4.0371  -13.5437   20.2151 C   0  0  0  0  0  0  0  0  0  0  0  0
   -4.4603  -14.6750   20.9050 N   0  0  0  0  0  0  0  0  0  0  0  0
   -5.2691  -14.8132   22.1383 C   0  0  0  0  0  0  0  0  0  0  0  0
   -5.8268  -13.9835   22.8041 O   0  0  0  0  0  0  0  0  0  0  0  0
   -5.4320  -16.3553   22.5289 C   0  0  0  0  0  0  0  0  0  0  0  0
   -6.4796  -16.9740   21.6004 C   0  0  0  0  0  0  0  0  0  0  0  0
   -5.7491  -16.7320   23.9508 N   0  0  0  0  0  0  0  0  0  0  0  0
   -6.4277  -16.0057   24.8976 C   0  0  0  0  0  0  0  0  0  0  0  0
   -6.4887  -16.6175   26.0634 N   0  0  0  0  0  0  0  0  0  0  0  0
   -5.8516  -17.8139   25.8863 C   0  0  0  0  0  0  0  0  0  0  0  0
   -5.6195  -18.8467   26.8150 C   0  0  0  0  0  0  0  0  0  0  0  0
   -5.0262  -20.0321   26.3717 C   0  0  0  0  0  0  0  0  0  0  0  0
   -4.6858  -20.1868   25.0291 C   0  0  0  0  0  0  0  0  0  0  0  0
   -4.8872  -19.1565   24.0963 C   0  0  0  0  0  0  0  0  0  0  0  0
   -5.4557  -17.9597   24.5544 C   0  0  0  0  0  0  0  0  0  0  0  0
   -4.6897  -11.9871   20.5023 S   0  0  0  0  0  0  0  0  0  0  0  0
   -3.8593   -8.0163   19.7482 H   0  0  0  0  0  0  0  0  0  0  0  0
   -5.1872   -9.1566   19.9670 H   0  0  0  0  0  0  0  0  0  0  0  0
   -3.7880   -9.1465   21.1084 H   0  0  0  0  0  0  0  0  0  0  0  0
   -1.9925  -12.0994   18.1667 H   0  0  0  0  0  0  0  0  0  0  0  0
   -4.0727  -15.5753   20.6591 H   0  0  0  0  0  0  0  0  0  0  0  0
   -4.4550  -16.8242   22.3518 H   0  0  0  0  0  0  0  0  0  0  0  0
   -7.4677  -16.5364   21.7837 H   0  0  0  0  0  0  0  0  0  0  0  0
   -6.5630  -18.0556   21.7482 H   0  0  0  0  0  0  0  0  0  0  0  0
   -6.2331  -16.7998   20.5480 H   0  0  0  0  0  0  0  0  0  0  0  0
   -6.8467  -15.0270   24.7001 H   0  0  0  0  0  0  0  0  0  0  0  0
   -5.9031  -18.7067   27.8536 H   0  0  0  0  0  0  0  0  0  0  0  0
   -4.8155  -20.8341   27.0730 H   0  0  0  0  0  0  0  0  0  0  0  0
   -4.2285  -21.1187   24.7002 H   0  0  0  0  0  0  0  0  0  0  0  0
   -4.5854  -19.2897   23.0629 H   0  0  0  0  0  0  0  0  0  0  0  0
  1  2  1  0
  2  3  1  0
  3  4  2  0
  4  5  1  0
  5  6  2  0
  6  7  1  0
  7  8  1  0
  8  9  2  0
  8 10  1  0
 10 11  1  0
 10 12  1  0
 12 13  1  0
 13 14  2  0
 14 15  1  0
 15 16  2  0
 16 17  1  0
 17 18  2  0
 18 19  1  0
 19 20  2  0
  6 21  1  0
 21  3  1  0
 20 12  1  0
 20 15  1  0
  1 22  1  0
  1 23  1  0
  1 24  1  0
  4 25  1  0
  7 26  1  0
 10 27  1  0
 11 28  1  0
 11 29  1  0
 11 30  1  0
 13 31  1  0
 16 32  1  0
 17 33  1  0
 18 34  1  0
 19 35  1  0
M  END
>  <Energy>  (861) 
16.736667532444564

>  <compound_id>  (861) 
12750

>  <target_id>  (861) 
1

>  <reference_id>  (861) 
94

>  <inspiration_ids>  (861) 
[71, 94]

>  <energy_score>  (861) 
-55.35958055477039

>  <distance_score>  (861) 
15.327573939884317

>  <path>  (861) 
/opt/xchem-fragalysis-2/maxwin/BulkDock/SCRATCH/511015/C12750-P94/C12750-P94.minimised.mol

>  <scratch_subdir>  (861) 
/opt/xchem-fragalysis-2/maxwin/BulkDock/SCRATCH/511015/C12750-P94

>  <fragmenstein_runtime>  (861) 
19.54197072982788

>  <fragmenstein_outcome>  (861) 
too moved

>  <fragmenstein_mode>  (861) 
expansion

>  <fragmenstein_error>  (861) 


$$$$
C12752-P71
     RDKit          3D

 38 40  0  0  0  0  0  0  0  0999 V2000
    1.7334  -16.9376   19.2388 N   0  0  0  0  0  0  0  0  0  0  0  0
    0.7295  -17.3429   19.6791 C   0  0  0  0  0  0  0  0  0  0  0  0
   -0.5847  -17.8501   20.1343 C   0  0  0  0  0  0  0  0  0  0  0  0
   -1.7616  -17.4721   19.5322 C   0  0  0  0  0  0  0  0  0  0  0  0
   -3.1132  -18.2935   20.2475 S   0  0  0  0  0  0  0  0  0  0  0  0
   -2.0978  -19.1023   21.4277 C   0  0  0  0  0  0  0  0  0  0  0  0
   -2.7087  -20.3756   22.3186 C   0  0  0  0  0  0  0  0  0  0  0  0
   -3.6695  -20.4147   23.5737 N   0  0  0  0  0  0  0  0  0  0  0  0
   -4.6383  -21.4858   24.0471 C   0  0  0  0  0  0  0  0  0  0  0  0
   -4.9643  -22.5277   23.5323 O   0  0  0  0  0  0  0  0  0  0  0  0
   -5.3253  -21.3067   25.6053 C   0  0  0  0  0  0  0  0  0  0  0  0
   -6.4835  -22.5679   26.1194 C   0  0  0  0  0  0  0  0  0  0  0  0
   -7.7054  -22.5496   27.4728 C   0  0  0  0  0  0  0  0  0  0  0  0
   -9.1839  -23.4757   27.9865 N   0  0  0  0  0  0  0  0  0  0  0  0
   -9.2299  -24.6021   28.9240 C   0  0  0  0  0  0  0  0  0  0  0  0
   -9.9054  -25.6440   28.5312 N   0  0  0  0  0  0  0  0  0  0  0  0
  -10.7256  -25.1389   27.6189 C   0  0  0  0  0  0  0  0  0  0  0  0
  -11.7707  -25.8387   27.0028 C   0  0  0  0  0  0  0  0  0  0  0  0
  -12.6461  -25.1409   26.2035 C   0  0  0  0  0  0  0  0  0  0  0  0
  -12.5318  -23.7653   26.1529 C   0  0  0  0  0  0  0  0  0  0  0  0
  -11.5290  -23.0550   26.8464 C   0  0  0  0  0  0  0  0  0  0  0  0
  -10.4699  -23.7682   27.4065 C   0  0  0  0  0  0  0  0  0  0  0  0
   -0.7938  -18.8260   21.1858 N   0  0  0  0  0  0  0  0  0  0  0  0
   -1.9092  -16.7940   18.7048 H   0  0  0  0  0  0  0  0  0  0  0  0
   -3.1794  -21.0464   21.5887 H   0  0  0  0  0  0  0  0  0  0  0  0
   -1.8107  -20.8934   22.6804 H   0  0  0  0  0  0  0  0  0  0  0  0
   -3.5723  -19.7110   24.2944 H   0  0  0  0  0  0  0  0  0  0  0  0
   -5.7515  -20.3042   25.6890 H   0  0  0  0  0  0  0  0  0  0  0  0
   -4.4865  -21.3731   26.3093 H   0  0  0  0  0  0  0  0  0  0  0  0
   -5.7140  -23.2391   26.4851 H   0  0  0  0  0  0  0  0  0  0  0  0
   -6.9046  -23.0138   25.2152 H   0  0  0  0  0  0  0  0  0  0  0  0
   -6.9969  -22.8309   28.2025 H   0  0  0  0  0  0  0  0  0  0  0  0
   -7.9359  -21.5176   27.6262 H   0  0  0  0  0  0  0  0  0  0  0  0
   -8.6994  -24.7064   29.8496 H   0  0  0  0  0  0  0  0  0  0  0  0
  -11.8970  -26.8991   27.1840 H   0  0  0  0  0  0  0  0  0  0  0  0
  -13.4565  -25.6492   25.6906 H   0  0  0  0  0  0  0  0  0  0  0  0
  -13.2661  -23.2264   25.5626 H   0  0  0  0  0  0  0  0  0  0  0  0
  -11.5620  -21.9741   26.8816 H   0  0  0  0  0  0  0  0  0  0  0  0
  1  2  3  0
  2  3  1  0
  3  4  2  0
  4  5  1  0
  5  6  1  0
  6  7  1  0
  7  8  1  0
  8  9  1  0
  9 10  2  0
  9 11  1  0
 11 12  1  0
 12 13  1  0
 13 14  1  0
 14 15  1  0
 15 16  2  0
 16 17  1  0
 17 18  2  0
 18 19  1  0
 19 20  2  0
 20 21  1  0
 21 22  2  0
  6 23  2  0
 23  3  1  0
 22 14  1  0
 22 17  1  0
  4 24  1  0
  7 25  1  0
  7 26  1  0
  8 27  1  0
 11 28  1  0
 11 29  1  0
 12 30  1  0
 12 31  1  0
 13 32  1  0
 13 33  1  0
 15 34  1  0
 18 35  1  0
 19 36  1  0
 20 37  1  0
 21 38  1  0
M  END
>  <Energy>  (862) 
246.79697349576583

>  <compound_id>  (862) 
12752

>  <target_id>  (862) 
1

>  <reference_id>  (862) 
71

>  <inspiration_ids>  (862) 
[71, 94]

>  <energy_score>  (862) 
145.376133460191

>  <distance_score>  (862) 
14.162793149306877

>  <path>  (862) 
/opt/xchem-fragalysis-2/maxwin/BulkDock/SCRATCH/511015/C12752-P71/C12752-P71.minimised.mol

>  <scratch_subdir>  (862) 
/opt/xchem-fragalysis-2/maxwin/BulkDock/SCRATCH/511015/C12752-P71

>  <fragmenstein_runtime>  (862) 
31.37737250328064

>  <fragmenstein_outcome>  (862) 
too moved

>  <fragmenstein_mode>  (862) 
expansion

>  <fragmenstein_error>  (862) 


$$$$
C12752-P94
     RDKit          3D

 38 40  0  0  0  0  0  0  0  0999 V2000
   10.6652  -11.2879   18.8760 N   0  0  0  0  0  0  0  0  0  0  0  0
    9.5227  -11.4877   18.9855 C   0  0  0  0  0  0  0  0  0  0  0  0
    8.1047  -11.6837   19.1717 C   0  0  0  0  0  0  0  0  0  0  0  0
    7.4683  -12.5077   20.0402 C   0  0  0  0  0  0  0  0  0  0  0  0
    5.7798  -12.1941   20.0183 S   0  0  0  0  0  0  0  0  0  0  0  0
    5.8915  -10.7924   18.8287 C   0  0  0  0  0  0  0  0  0  0  0  0
    4.5348   -9.3430   18.2547 C   0  0  0  0  0  0  0  0  0  0  0  0
    2.6024   -9.2062   18.6147 N   0  0  0  0  0  0  0  0  0  0  0  0
    1.5143   -8.6504   17.8320 C   0  0  0  0  0  0  0  0  0  0  0  0
    1.5122   -8.1616   16.7293 O   0  0  0  0  0  0  0  0  0  0  0  0
   -0.1801   -8.5621   18.7541 C   0  0  0  0  0  0  0  0  0  0  0  0
   -1.6795   -9.5119   19.4529 C   0  0  0  0  0  0  0  0  0  0  0  0
   -3.2330   -9.0532   19.9364 C   0  0  0  0  0  0  0  0  0  0  0  0
   -4.2834  -10.1119   20.1496 N   0  0  0  0  0  0  0  0  0  0  0  0
   -4.0422  -11.4247   19.8876 C   0  0  0  0  0  0  0  0  0  0  0  0
   -5.0892  -12.2066   20.0535 N   0  0  0  0  0  0  0  0  0  0  0  0
   -6.0529  -11.4285   20.5774 C   0  0  0  0  0  0  0  0  0  0  0  0
   -7.3012  -11.8477   21.0807 C   0  0  0  0  0  0  0  0  0  0  0  0
   -8.1759  -10.8830   21.5539 C   0  0  0  0  0  0  0  0  0  0  0  0
   -7.8087   -9.5381   21.4725 C   0  0  0  0  0  0  0  0  0  0  0  0
   -6.5463   -9.1105   20.9750 C   0  0  0  0  0  0  0  0  0  0  0  0
   -5.6284  -10.0881   20.5747 C   0  0  0  0  0  0  0  0  0  0  0  0
    7.2359  -10.8769   18.5025 N   0  0  0  0  0  0  0  0  0  0  0  0
    7.8828  -13.2533   20.7012 H   0  0  0  0  0  0  0  0  0  0  0  0
    4.1037   -9.8564   17.4009 H   0  0  0  0  0  0  0  0  0  0  0  0
    4.9637   -8.3415   18.3694 H   0  0  0  0  0  0  0  0  0  0  0  0
    2.2271   -9.5981   19.4531 H   0  0  0  0  0  0  0  0  0  0  0  0
   -0.6606   -8.3381   17.8385 H   0  0  0  0  0  0  0  0  0  0  0  0
    0.0623   -7.9017   19.5655 H   0  0  0  0  0  0  0  0  0  0  0  0
   -1.3213   -9.9938   20.3757 H   0  0  0  0  0  0  0  0  0  0  0  0
   -1.8592  -10.2572   18.6656 H   0  0  0  0  0  0  0  0  0  0  0  0
   -3.1626   -8.5207   20.8897 H   0  0  0  0  0  0  0  0  0  0  0  0
   -3.6454   -8.3948   19.1649 H   0  0  0  0  0  0  0  0  0  0  0  0
   -3.0637  -11.7661   19.5844 H   0  0  0  0  0  0  0  0  0  0  0  0
   -7.5575  -12.8994   21.0838 H   0  0  0  0  0  0  0  0  0  0  0  0
   -9.1475  -11.1661   21.9458 H   0  0  0  0  0  0  0  0  0  0  0  0
   -8.5140   -8.7792   21.8093 H   0  0  0  0  0  0  0  0  0  0  0  0
   -6.2858   -8.0571   20.9552 H   0  0  0  0  0  0  0  0  0  0  0  0
  1  2  3  0
  2  3  1  0
  3  4  2  0
  4  5  1  0
  5  6  1  0
  6  7  1  0
  7  8  1  0
  8  9  1  0
  9 10  2  0
  9 11  1  0
 11 12  1  0
 12 13  1  0
 13 14  1  0
 14 15  1  0
 15 16  2  0
 16 17  1  0
 17 18  2  0
 18 19  1  0
 19 20  2  0
 20 21  1  0
 21 22  2  0
  6 23  2  0
 23  3  1  0
 22 14  1  0
 22 17  1  0
  4 24  1  0
  7 25  1  0
  7 26  1  0
  8 27  1  0
 11 28  1  0
 11 29  1  0
 12 30  1  0
 12 31  1  0
 13 32  1  0
 13 33  1  0
 15 34  1  0
 18 35  1  0
 19 36  1  0
 20 37  1  0
 21 38  1  0
M  END
>  <Energy>  (863) 
356.92895007365468

>  <compound_id>  (863) 
12752

>  <target_id>  (863) 
1

>  <reference_id>  (863) 
94

>  <inspiration_ids>  (863) 
[71, 94]

>  <energy_score>  (863) 
255.5081100380711

>  <distance_score>  (863) 
16.4456923669265

>  <path>  (863) 
/opt/xchem-fragalysis-2/maxwin/BulkDock/SCRATCH/511015/C12752-P94/C12752-P94.minimised.mol

>  <scratch_subdir>  (863) 
/opt/xchem-fragalysis-2/maxwin/BulkDock/SCRATCH/511015/C12752-P94

>  <fragmenstein_runtime>  (863) 
22.62762951850891

>  <fragmenstein_outcome>  (863) 
too moved

>  <fragmenstein_mode>  (863) 
expansion

>  <fragmenstein_error>  (863) 


$$$$
C12753-P71
     RDKit          3D

 41 43  0  0  0  0  0  0  0  0999 V2000
   -4.9546  -19.1758   25.5182 O   0  0  0  0  0  0  0  0  0  0  0  0
   -4.6674  -20.1198   24.8239 C   0  0  0  0  0  0  0  0  0  0  0  0
   -5.3627  -21.5378   25.3733 C   0  0  0  0  0  0  0  0  0  0  0  0
   -6.3722  -21.4028   26.8287 C   0  0  0  0  0  0  0  0  0  0  0  0
   -7.5741  -22.5768   27.3125 C   0  0  0  0  0  0  0  0  0  0  0  0
   -9.1383  -23.0661   27.9509 N   0  0  0  0  0  0  0  0  0  0  0  0
  -10.2968  -22.3505   28.4234 C   0  0  0  0  0  0  0  0  0  0  0  0
  -11.0845  -23.1197   29.1644 N   0  0  0  0  0  0  0  0  0  0  0  0
  -10.6845  -24.3717   28.8262 C   0  0  0  0  0  0  0  0  0  0  0  0
  -11.2550  -25.5931   29.1513 C   0  0  0  0  0  0  0  0  0  0  0  0
  -11.6952  -26.3335   28.0553 C   0  0  0  0  0  0  0  0  0  0  0  0
  -11.5085  -25.8356   26.7647 C   0  0  0  0  0  0  0  0  0  0  0  0
  -10.6959  -24.7115   26.5366 C   0  0  0  0  0  0  0  0  0  0  0  0
   -9.9742  -24.2148   27.6384 C   0  0  0  0  0  0  0  0  0  0  0  0
   -3.7299  -20.2186   23.6450 N   0  0  0  0  0  0  0  0  0  0  0  0
   -2.7678  -19.1685   23.0250 C   0  0  0  0  0  0  0  0  0  0  0  0
   -2.1786  -18.9238   21.5018 C   0  0  0  0  0  0  0  0  0  0  0  0
   -0.8823  -18.7039   21.1883 N   0  0  0  0  0  0  0  0  0  0  0  0
   -0.6842  -17.8948   20.0020 C   0  0  0  0  0  0  0  0  0  0  0  0
    0.6889  -17.2876   19.6462 C   0  0  0  0  0  0  0  0  0  0  0  0
    0.8494  -16.7317   18.3302 O   0  0  0  0  0  0  0  0  0  0  0  0
   -1.8719  -17.6697   19.3442 C   0  0  0  0  0  0  0  0  0  0  0  0
   -3.2072  -18.3739   20.2044 S   0  0  0  0  0  0  0  0  0  0  0  0
   -4.5371  -22.2090   25.6383 H   0  0  0  0  0  0  0  0  0  0  0  0
   -5.9248  -21.9967   24.5546 H   0  0  0  0  0  0  0  0  0  0  0  0
   -5.5415  -21.5737   27.5270 H   0  0  0  0  0  0  0  0  0  0  0  0
   -6.6996  -20.3732   26.9646 H   0  0  0  0  0  0  0  0  0  0  0  0
   -7.5716  -23.1069   26.3743 H   0  0  0  0  0  0  0  0  0  0  0  0
   -6.9314  -23.0573   28.0186 H   0  0  0  0  0  0  0  0  0  0  0  0
  -10.4029  -21.3020   28.3524 H   0  0  0  0  0  0  0  0  0  0  0  0
  -11.5517  -25.7997   30.1681 H   0  0  0  0  0  0  0  0  0  0  0  0
  -12.2995  -27.2227   28.2116 H   0  0  0  0  0  0  0  0  0  0  0  0
  -12.0294  -26.3008   25.9318 H   0  0  0  0  0  0  0  0  0  0  0  0
  -10.6356  -24.2699   25.5495 H   0  0  0  0  0  0  0  0  0  0  0  0
   -3.7920  -21.1476   23.2467 H   0  0  0  0  0  0  0  0  0  0  0  0
   -1.8632  -19.2791   23.6371 H   0  0  0  0  0  0  0  0  0  0  0  0
   -3.2228  -18.2174   23.3211 H   0  0  0  0  0  0  0  0  0  0  0  0
    0.8303  -16.4574   20.3181 H   0  0  0  0  0  0  0  0  0  0  0  0
    1.4715  -18.0363   19.8001 H   0  0  0  0  0  0  0  0  0  0  0  0
    0.8189  -17.4847   17.7173 H   0  0  0  0  0  0  0  0  0  0  0  0
   -2.0413  -17.1041   18.4397 H   0  0  0  0  0  0  0  0  0  0  0  0
  1  2  2  0
  2  3  1  0
  3  4  1  0
  4  5  1  0
  5  6  1  0
  6  7  1  0
  7  8  2  0
  8  9  1  0
  9 10  2  0
 10 11  1  0
 11 12  2  0
 12 13  1  0
 13 14  2  0
  2 15  1  0
 15 16  1  0
 16 17  1  0
 17 18  2  0
 18 19  1  0
 19 20  1  0
 20 21  1  0
 19 22  2  0
 22 23  1  0
 14  6  1  0
 23 17  1  0
 14  9  1  0
  3 24  1  0
  3 25  1  0
  4 26  1  0
  4 27  1  0
  5 28  1  0
  5 29  1  0
  7 30  1  0
 10 31  1  0
 11 32  1  0
 12 33  1  0
 13 34  1  0
 15 35  1  0
 16 36  1  0
 16 37  1  0
 20 38  1  0
 20 39  1  0
 21 40  1  0
 22 41  1  0
M  END
>  <Energy>  (864) 
266.90203697243334

>  <compound_id>  (864) 
12753

>  <target_id>  (864) 
1

>  <reference_id>  (864) 
71

>  <inspiration_ids>  (864) 
[71, 94]

>  <energy_score>  (864) 
202.58369336662201

>  <distance_score>  (864) 
14.701711506646442

>  <path>  (864) 
/opt/xchem-fragalysis-2/maxwin/BulkDock/SCRATCH/511015/C12753-P71/C12753-P71.minimised.mol

>  <scratch_subdir>  (864) 
/opt/xchem-fragalysis-2/maxwin/BulkDock/SCRATCH/511015/C12753-P71

>  <fragmenstein_runtime>  (864) 
28.154732942581177

>  <fragmenstein_outcome>  (864) 
too moved

>  <fragmenstein_mode>  (864) 
expansion

>  <fragmenstein_error>  (864) 


$$$$
C12753-P94
     RDKit          3D

 41 43  0  0  0  0  0  0  0  0999 V2000
   -4.8872  -18.3863   22.4582 O   0  0  0  0  0  0  0  0  0  0  0  0
   -3.8448  -18.8517   22.8525 C   0  0  0  0  0  0  0  0  0  0  0  0
   -3.9847  -19.4900   24.4212 C   0  0  0  0  0  0  0  0  0  0  0  0
   -5.4963  -19.2774   25.1551 C   0  0  0  0  0  0  0  0  0  0  0  0
   -6.0274  -19.7219   26.6999 C   0  0  0  0  0  0  0  0  0  0  0  0
   -6.7291  -21.0319   26.9894 N   0  0  0  0  0  0  0  0  0  0  0  0
   -5.8877  -22.1001   26.8398 C   0  0  0  0  0  0  0  0  0  0  0  0
   -6.4335  -23.1320   27.3755 N   0  0  0  0  0  0  0  0  0  0  0  0
   -7.8193  -22.9504   27.5800 C   0  0  0  0  0  0  0  0  0  0  0  0
   -9.1094  -23.9461   27.9924 C   0  0  0  0  0  0  0  0  0  0  0  0
  -10.4837  -23.8030   28.1329 C   0  0  0  0  0  0  0  0  0  0  0  0
  -10.8509  -22.5304   28.2311 C   0  0  0  0  0  0  0  0  0  0  0  0
   -9.7874  -21.6080   28.0999 C   0  0  0  0  0  0  0  0  0  0  0  0
   -8.0012  -21.6359   27.5590 C   0  0  0  0  0  0  0  0  0  0  0  0
   -2.5009  -18.9608   22.1713 N   0  0  0  0  0  0  0  0  0  0  0  0
   -2.0554  -18.5957   20.6853 C   0  0  0  0  0  0  0  0  0  0  0  0
   -0.5604  -18.0784   20.1263 C   0  0  0  0  0  0  0  0  0  0  0  0
   -0.2564  -16.9743   19.3991 N   0  0  0  0  0  0  0  0  0  0  0  0
    1.0819  -16.9987   18.8339 C   0  0  0  0  0  0  0  0  0  0  0  0
    1.6249  -15.9622   17.8203 C   0  0  0  0  0  0  0  0  0  0  0  0
    2.7858  -15.2154   18.2058 O   0  0  0  0  0  0  0  0  0  0  0  0
    1.7630  -18.1463   19.1720 C   0  0  0  0  0  0  0  0  0  0  0  0
    0.7436  -19.2438   20.0221 S   0  0  0  0  0  0  0  0  0  0  0  0
   -3.2279  -19.0011   25.0419 H   0  0  0  0  0  0  0  0  0  0  0  0
   -3.7878  -20.5638   24.3509 H   0  0  0  0  0  0  0  0  0  0  0  0
   -5.5903  -18.1813   25.1745 H   0  0  0  0  0  0  0  0  0  0  0  0
   -6.2144  -19.6032   24.4024 H   0  0  0  0  0  0  0  0  0  0  0  0
   -6.6593  -18.9287   27.1091 H   0  0  0  0  0  0  0  0  0  0  0  0
   -5.1256  -19.7289   27.3283 H   0  0  0  0  0  0  0  0  0  0  0  0
   -4.8823  -22.0392   26.4438 H   0  0  0  0  0  0  0  0  0  0  0  0
   -8.8615  -24.9740   28.3291 H   0  0  0  0  0  0  0  0  0  0  0  0
  -11.1450  -24.6255   28.3704 H   0  0  0  0  0  0  0  0  0  0  0  0
  -11.8361  -22.2350   28.5705 H   0  0  0  0  0  0  0  0  0  0  0  0
  -10.0929  -20.8101   28.7769 H   0  0  0  0  0  0  0  0  0  0  0  0
   -1.8695  -19.4825   22.7630 H   0  0  0  0  0  0  0  0  0  0  0  0
   -2.7931  -17.8734   20.3148 H   0  0  0  0  0  0  0  0  0  0  0  0
   -2.2451  -19.5268   20.1347 H   0  0  0  0  0  0  0  0  0  0  0  0
    0.8297  -15.2694   17.5253 H   0  0  0  0  0  0  0  0  0  0  0  0
    1.8956  -16.5079   16.9085 H   0  0  0  0  0  0  0  0  0  0  0  0
    2.8758  -15.2163   19.1808 H   0  0  0  0  0  0  0  0  0  0  0  0
    2.7561  -18.4431   18.8664 H   0  0  0  0  0  0  0  0  0  0  0  0
  1  2  2  0
  2  3  1  0
  3  4  1  0
  4  5  1  0
  5  6  1  0
  6  7  1  0
  7  8  2  0
  8  9  1  0
  9 10  2  0
 10 11  1  0
 11 12  2  0
 12 13  1  0
 13 14  2  0
  2 15  1  0
 15 16  1  0
 16 17  1  0
 17 18  2  0
 18 19  1  0
 19 20  1  0
 20 21  1  0
 19 22  2  0
 22 23  1  0
 14  6  1  0
 23 17  1  0
 14  9  1  0
  3 24  1  0
  3 25  1  0
  4 26  1  0
  4 27  1  0
  5 28  1  0
  5 29  1  0
  7 30  1  0
 10 31  1  0
 11 32  1  0
 12 33  1  0
 13 34  1  0
 15 35  1  0
 16 36  1  0
 16 37  1  0
 20 38  1  0
 20 39  1  0
 21 40  1  0
 22 41  1  0
M  END
>  <Energy>  (865) 
277.71284202443292

>  <compound_id>  (865) 
12753

>  <target_id>  (865) 
1

>  <reference_id>  (865) 
94

>  <inspiration_ids>  (865) 
[71, 94]

>  <energy_score>  (865) 
213.39449841861608

>  <distance_score>  (865) 
13.940880590227188

>  <path>  (865) 
/opt/xchem-fragalysis-2/maxwin/BulkDock/SCRATCH/511015/C12753-P94/C12753-P94.minimised.mol

>  <scratch_subdir>  (865) 
/opt/xchem-fragalysis-2/maxwin/BulkDock/SCRATCH/511015/C12753-P94

>  <fragmenstein_runtime>  (865) 
24.585843086242676

>  <fragmenstein_outcome>  (865) 
too moved

>  <fragmenstein_mode>  (865) 
expansion

>  <fragmenstein_error>  (865) 


$$$$
C12754-P71
     RDKit          3D

 40 42  0  0  0  0  0  0  0  0999 V2000
    1.5384   -8.6150   18.5672 C   0  0  0  0  0  0  0  0  0  0  0  0
    0.2507   -8.3819   19.5181 C   0  0  0  0  0  0  0  0  0  0  0  0
   -0.9983   -8.6948   18.9629 C   0  0  0  0  0  0  0  0  0  0  0  0
   -2.0698   -9.3968   20.0668 S   0  0  0  0  0  0  0  0  0  0  0  0
   -1.0216   -8.8514   21.3432 C   0  0  0  0  0  0  0  0  0  0  0  0
   -1.7839   -8.4724   22.6055 C   0  0  0  0  0  0  0  0  0  0  0  0
   -2.5925   -9.4452   23.2930 N   0  0  0  0  0  0  0  0  0  0  0  0
   -3.6268  -10.2269   22.8568 C   0  0  0  0  0  0  0  0  0  0  0  0
   -4.1810  -10.2497   21.8154 O   0  0  0  0  0  0  0  0  0  0  0  0
   -4.0681  -11.6377   24.3542 C   0  0  0  0  0  0  0  0  0  0  0  0
   -4.7665  -13.2967   24.7587 C   0  0  0  0  0  0  0  0  0  0  0  0
   -5.1551  -13.5601   26.2623 C   0  0  0  0  0  0  0  0  0  0  0  0
   -5.0099  -14.9487   26.6867 N   0  0  0  0  0  0  0  0  0  0  0  0
   -3.7980  -15.5727   26.8446 C   0  0  0  0  0  0  0  0  0  0  0  0
   -3.9176  -16.8004   27.2801 N   0  0  0  0  0  0  0  0  0  0  0  0
   -5.2529  -16.9527   27.4974 C   0  0  0  0  0  0  0  0  0  0  0  0
   -5.8998  -18.0535   28.0285 C   0  0  0  0  0  0  0  0  0  0  0  0
   -7.2733  -17.9529   28.1673 C   0  0  0  0  0  0  0  0  0  0  0  0
   -8.0089  -16.8284   27.7986 C   0  0  0  0  0  0  0  0  0  0  0  0
   -7.3666  -15.7227   27.2589 C   0  0  0  0  0  0  0  0  0  0  0  0
   -5.9778  -15.8170   27.1255 C   0  0  0  0  0  0  0  0  0  0  0  0
    0.1992   -8.4373   20.9457 N   0  0  0  0  0  0  0  0  0  0  0  0
    1.1846   -8.6274   17.5319 H   0  0  0  0  0  0  0  0  0  0  0  0
    2.0968   -9.5033   18.7211 H   0  0  0  0  0  0  0  0  0  0  0  0
    2.3130   -7.8824   18.5627 H   0  0  0  0  0  0  0  0  0  0  0  0
   -1.1878   -8.9462   17.9564 H   0  0  0  0  0  0  0  0  0  0  0  0
   -2.6085   -7.8952   22.2265 H   0  0  0  0  0  0  0  0  0  0  0  0
   -1.1577   -7.9399   23.3173 H   0  0  0  0  0  0  0  0  0  0  0  0
   -2.4347   -9.6334   24.2536 H   0  0  0  0  0  0  0  0  0  0  0  0
   -3.2516  -11.8588   25.0566 H   0  0  0  0  0  0  0  0  0  0  0  0
   -5.1685  -11.5499   24.4860 H   0  0  0  0  0  0  0  0  0  0  0  0
   -5.6598  -13.4573   24.1349 H   0  0  0  0  0  0  0  0  0  0  0  0
   -4.0595  -14.0801   24.4970 H   0  0  0  0  0  0  0  0  0  0  0  0
   -4.4894  -12.9938   26.9228 H   0  0  0  0  0  0  0  0  0  0  0  0
   -6.1821  -13.2341   26.4509 H   0  0  0  0  0  0  0  0  0  0  0  0
   -2.8585  -15.0842   26.6240 H   0  0  0  0  0  0  0  0  0  0  0  0
   -5.3397  -18.9241   28.3417 H   0  0  0  0  0  0  0  0  0  0  0  0
   -7.7696  -18.8105   28.5624 H   0  0  0  0  0  0  0  0  0  0  0  0
   -9.0867  -16.8140   27.9347 H   0  0  0  0  0  0  0  0  0  0  0  0
   -7.9162  -14.8319   26.9782 H   0  0  0  0  0  0  0  0  0  0  0  0
  1  2  1  0
  2  3  2  0
  3  4  1  0
  4  5  1  0
  5  6  1  0
  6  7  1  0
  7  8  1  0
  8  9  2  0
  8 10  1  0
 10 11  1  0
 11 12  1  0
 12 13  1  0
 13 14  1  0
 14 15  2  0
 15 16  1  0
 16 17  2  0
 17 18  1  0
 18 19  2  0
 19 20  1  0
 20 21  2  0
  5 22  2  0
 22  2  1  0
 21 13  1  0
 21 16  1  0
  1 23  1  0
  1 24  1  0
  1 25  1  0
  3 26  1  0
  6 27  1  0
  6 28  1  0
  7 29  1  0
 10 30  1  0
 10 31  1  0
 11 32  1  0
 11 33  1  0
 12 34  1  0
 12 35  1  0
 14 36  1  0
 17 37  1  0
 18 38  1  0
 19 39  1  0
 20 40  1  0
M  END
>  <Energy>  (866) 
216.44738313066577

>  <compound_id>  (866) 
12754

>  <target_id>  (866) 
1

>  <reference_id>  (866) 
71

>  <inspiration_ids>  (866) 
[71, 94]

>  <energy_score>  (866) 
154.24367298529478

>  <distance_score>  (866) 
13.209388150075998

>  <path>  (866) 
/opt/xchem-fragalysis-2/maxwin/BulkDock/SCRATCH/511015/C12754-P71/C12754-P71.minimised.mol

>  <scratch_subdir>  (866) 
/opt/xchem-fragalysis-2/maxwin/BulkDock/SCRATCH/511015/C12754-P71

>  <fragmenstein_runtime>  (866) 
34.91645526885986

>  <fragmenstein_outcome>  (866) 
too moved

>  <fragmenstein_mode>  (866) 
expansion

>  <fragmenstein_error>  (866) 


$$$$
C12754-P94
     RDKit          3D

 40 42  0  0  0  0  0  0  0  0999 V2000
    0.9148   -1.4577   18.4965 C   0  0  0  0  0  0  0  0  0  0  0  0
    0.7747   -3.2983   18.6763 C   0  0  0  0  0  0  0  0  0  0  0  0
    1.8104   -3.6826   17.7715 C   0  0  0  0  0  0  0  0  0  0  0  0
   -0.1282   -4.0366   18.6692 S   0  0  0  0  0  0  0  0  0  0  0  0
   -0.2624   -6.4630   19.0506 C   0  0  0  0  0  0  0  0  0  0  0  0
   -1.4664   -8.3601   19.4557 C   0  0  0  0  0  0  0  0  0  0  0  0
   -2.9103   -9.4087   20.6958 N   0  0  0  0  0  0  0  0  0  0  0  0
   -3.9256  -11.1849   20.5081 C   0  0  0  0  0  0  0  0  0  0  0  0
   -3.5482  -11.7701   19.5225 O   0  0  0  0  0  0  0  0  0  0  0  0
   -5.6110  -12.3755   21.4780 C   0  0  0  0  0  0  0  0  0  0  0  0
   -6.5937  -13.8243   22.8715 C   0  0  0  0  0  0  0  0  0  0  0  0
   -7.1764  -15.1239   24.5664 C   0  0  0  0  0  0  0  0  0  0  0  0
   -8.3864  -16.1926   25.8406 N   0  0  0  0  0  0  0  0  0  0  0  0
   -9.5912  -15.3995   26.2189 C   0  0  0  0  0  0  0  0  0  0  0  0
  -10.5580  -15.8160   27.0598 N   0  0  0  0  0  0  0  0  0  0  0  0
  -10.3751  -17.0547   27.7215 C   0  0  0  0  0  0  0  0  0  0  0  0
  -11.6626  -18.0783   28.5600 C   0  0  0  0  0  0  0  0  0  0  0  0
  -11.9270  -19.9579   28.9932 C   0  0  0  0  0  0  0  0  0  0  0  0
  -10.2556  -20.4297   29.1027 C   0  0  0  0  0  0  0  0  0  0  0  0
   -9.0360  -19.1779   28.0777 C   0  0  0  0  0  0  0  0  0  0  0  0
   -8.8888  -17.4823   27.1947 C   0  0  0  0  0  0  0  0  0  0  0  0
    0.2162   -4.7855   19.8179 N   0  0  0  0  0  0  0  0  0  0  0  0
    0.8038   -0.8596   19.4022 H   0  0  0  0  0  0  0  0  0  0  0  0
    1.8945   -1.2124   18.0679 H   0  0  0  0  0  0  0  0  0  0  0  0
    0.1387   -1.1938   17.7636 H   0  0  0  0  0  0  0  0  0  0  0  0
    2.1601   -2.9085   17.0822 H   0  0  0  0  0  0  0  0  0  0  0  0
   -0.6291   -8.7358   20.0712 H   0  0  0  0  0  0  0  0  0  0  0  0
   -1.5028   -8.8923   18.5032 H   0  0  0  0  0  0  0  0  0  0  0  0
   -3.1870   -8.9844   21.5757 H   0  0  0  0  0  0  0  0  0  0  0  0
   -6.0439  -11.9132   22.4132 H   0  0  0  0  0  0  0  0  0  0  0  0
   -6.3434  -12.4296   20.6532 H   0  0  0  0  0  0  0  0  0  0  0  0
   -6.7857  -14.5957   22.1060 H   0  0  0  0  0  0  0  0  0  0  0  0
   -7.5304  -13.2406   22.9367 H   0  0  0  0  0  0  0  0  0  0  0  0
   -6.5043  -15.9915   24.4973 H   0  0  0  0  0  0  0  0  0  0  0  0
   -6.9085  -14.4924   25.4281 H   0  0  0  0  0  0  0  0  0  0  0  0
   -9.6474  -14.4401   25.7209 H   0  0  0  0  0  0  0  0  0  0  0  0
  -12.5025  -17.3887   28.5876 H   0  0  0  0  0  0  0  0  0  0  0  0
  -12.7327  -20.6126   29.2042 H   0  0  0  0  0  0  0  0  0  0  0  0
  -10.2408  -21.5283   28.9476 H   0  0  0  0  0  0  0  0  0  0  0  0
   -9.2317  -20.4144   27.6166 H   0  0  0  0  0  0  0  0  0  0  0  0
  1  2  1  0
  2  3  2  0
  3  4  1  0
  4  5  1  0
  5  6  1  0
  6  7  1  0
  7  8  1  0
  8  9  2  0
  8 10  1  0
 10 11  1  0
 11 12  1  0
 12 13  1  0
 13 14  1  0
 14 15  2  0
 15 16  1  0
 16 17  2  0
 17 18  1  0
 18 19  2  0
 19 20  1  0
 20 21  2  0
  5 22  2  0
 22  2  1  0
 21 13  1  0
 21 16  1  0
  1 23  1  0
  1 24  1  0
  1 25  1  0
  3 26  1  0
  6 27  1  0
  6 28  1  0
  7 29  1  0
 10 30  1  0
 10 31  1  0
 11 32  1  0
 11 33  1  0
 12 34  1  0
 12 35  1  0
 14 36  1  0
 17 37  1  0
 18 38  1  0
 19 39  1  0
 20 40  1  0
M  END
>  <Energy>  (867) 
2812.9549701362739

>  <compound_id>  (867) 
12754

>  <target_id>  (867) 
1

>  <reference_id>  (867) 
94

>  <inspiration_ids>  (867) 
[71, 94]

>  <energy_score>  (867) 
2750.7512599909164

>  <distance_score>  (867) 
11.40860544465682

>  <path>  (867) 
/opt/xchem-fragalysis-2/maxwin/BulkDock/SCRATCH/511015/C12754-P94/C12754-P94.minimised.mol

>  <scratch_subdir>  (867) 
/opt/xchem-fragalysis-2/maxwin/BulkDock/SCRATCH/511015/C12754-P94

>  <fragmenstein_runtime>  (867) 
25.264848947525024

>  <fragmenstein_outcome>  (867) 
too moved

>  <fragmenstein_mode>  (867) 
expansion

>  <fragmenstein_error>  (867) 


$$$$
C69690-P88
     RDKit          3D

 38 39  0  0  0  0  0  0  0  0999 V2000
    4.2361  -13.1437   18.4265 C   0  0  0  0  0  0  0  0  0  0  0  0
    2.9521  -12.3969   18.9310 C   0  0  0  0  0  0  0  0  0  0  0  0
    2.6006  -11.3451   20.5309 C   0  0  0  0  0  0  0  0  0  0  0  0
    2.5350  -11.9852   21.9132 N   0  0  0  0  0  0  0  0  0  0  0  0
    3.7815  -11.9190   23.2345 C   0  0  0  0  0  0  0  0  0  0  0  0
    5.1994  -10.6271   23.4752 C   0  0  0  0  0  0  0  0  0  0  0  0
    6.0442   -9.8944   22.4920 N   0  0  0  0  0  0  0  0  0  0  0  0
    6.5415   -8.5325   22.4955 C   0  0  0  0  0  0  0  0  0  0  0  0
    6.3309   -7.6280   23.2511 O   0  0  0  0  0  0  0  0  0  0  0  0
    7.5545   -8.2419   21.4007 C   0  0  0  0  0  0  0  0  0  0  0  0
    7.7057   -8.8741   20.1759 C   0  0  0  0  0  0  0  0  0  0  0  0
    9.0518   -8.2485   19.2988 S   0  0  0  0  0  0  0  0  0  0  0  0
    9.3080   -7.1102   20.5476 C   0  0  0  0  0  0  0  0  0  0  0  0
    8.4537   -7.1593   21.5448 N   0  0  0  0  0  0  0  0  0  0  0  0
    1.0177  -11.6485   22.3435 C   0  0  0  0  0  0  0  0  0  0  0  0
   -0.6402  -12.7634   22.1103 C   0  0  0  0  0  0  0  0  0  0  0  0
   -1.7380  -13.1343   22.9879 C   0  0  0  0  0  0  0  0  0  0  0  0
   -2.9161  -14.6582   22.4713 S   0  0  0  0  0  0  0  0  0  0  0  0
   -2.1083  -14.6052   20.9459 C   0  0  0  0  0  0  0  0  0  0  0  0
   -1.1168  -13.6813   20.7937 N   0  0  0  0  0  0  0  0  0  0  0  0
    4.0282  -13.5325   17.4198 H   0  0  0  0  0  0  0  0  0  0  0  0
    4.4407  -14.0273   19.0369 H   0  0  0  0  0  0  0  0  0  0  0  0
    5.0959  -12.4796   18.3034 H   0  0  0  0  0  0  0  0  0  0  0  0
    3.0411  -11.6871   18.1478 H   0  0  0  0  0  0  0  0  0  0  0  0
    2.2045  -13.1798   18.8152 H   0  0  0  0  0  0  0  0  0  0  0  0
    3.1948  -10.4673   20.3202 H   0  0  0  0  0  0  0  0  0  0  0  0
    1.7333  -10.6918   20.5139 H   0  0  0  0  0  0  0  0  0  0  0  0
    4.2625  -12.8996   23.0757 H   0  0  0  0  0  0  0  0  0  0  0  0
    3.3202  -12.0678   24.2161 H   0  0  0  0  0  0  0  0  0  0  0  0
    6.0680  -11.1144   23.9065 H   0  0  0  0  0  0  0  0  0  0  0  0
    4.9903   -9.9472   24.3090 H   0  0  0  0  0  0  0  0  0  0  0  0
    6.4959  -10.4062   21.7536 H   0  0  0  0  0  0  0  0  0  0  0  0
    7.1142   -9.6579   19.7338 H   0  0  0  0  0  0  0  0  0  0  0  0
   10.1173   -6.3913   20.5134 H   0  0  0  0  0  0  0  0  0  0  0  0
    0.9495  -11.4370   23.4546 H   0  0  0  0  0  0  0  0  0  0  0  0
    0.9497  -10.6260   21.9522 H   0  0  0  0  0  0  0  0  0  0  0  0
   -2.1921  -12.6788   23.8567 H   0  0  0  0  0  0  0  0  0  0  0  0
   -2.3781  -15.2792   20.1434 H   0  0  0  0  0  0  0  0  0  0  0  0
  1  2  1  0
  2  3  1  0
  3  4  1  0
  4  5  1  0
  5  6  1  0
  6  7  1  0
  7  8  1  0
  8  9  2  0
  8 10  1  0
 10 11  2  0
 11 12  1  0
 12 13  1  0
 13 14  2  0
  4 15  1  0
 15 16  1  0
 16 17  2  0
 17 18  1  0
 18 19  1  0
 19 20  2  0
 14 10  1  0
 20 16  1  0
  1 21  1  0
  1 22  1  0
  1 23  1  0
  2 24  1  0
  2 25  1  0
  3 26  1  0
  3 27  1  0
  5 28  1  0
  5 29  1  0
  6 30  1  0
  6 31  1  0
  7 32  1  0
 11 33  1  0
 13 34  1  0
 15 35  1  0
 15 36  1  0
 17 37  1  0
 19 38  1  0
M  END
>  <Energy>  (868) 
392.7132816424625

>  <compound_id>  (868) 
69690

>  <target_id>  (868) 
1

>  <reference_id>  (868) 
88

>  <inspiration_ids>  (868) 
[88, 71]

>  <energy_score>  (868) 
247.50600548566615

>  <distance_score>  (868) 
14.903510169842669

>  <path>  (868) 
/opt/xchem-fragalysis-2/maxwin/BulkDock/SCRATCH/511015/C69690-P88/C69690-P88.minimised.mol

>  <scratch_subdir>  (868) 
/opt/xchem-fragalysis-2/maxwin/BulkDock/SCRATCH/511015/C69690-P88

>  <fragmenstein_runtime>  (868) 
12.872640371322632

>  <fragmenstein_outcome>  (868) 
too moved

>  <fragmenstein_mode>  (868) 
expansion

>  <fragmenstein_error>  (868) 


$$$$
C69690-P71
     RDKit          3D

 38 39  0  0  0  0  0  0  0  0999 V2000
   10.3155   -4.9385   22.0218 C   0  0  0  0  0  0  0  0  0  0  0  0
   10.6056   -4.9840   23.5029 C   0  0  0  0  0  0  0  0  0  0  0  0
    9.6375   -5.8965   24.2732 C   0  0  0  0  0  0  0  0  0  0  0  0
    9.6396   -7.4002   24.0819 N   0  0  0  0  0  0  0  0  0  0  0  0
   11.0247   -7.9094   24.2960 C   0  0  0  0  0  0  0  0  0  0  0  0
   11.8092   -8.2837   23.0083 C   0  0  0  0  0  0  0  0  0  0  0  0
   12.4909   -7.2043   22.3248 N   0  0  0  0  0  0  0  0  0  0  0  0
   13.7886   -6.6410   22.5222 C   0  0  0  0  0  0  0  0  0  0  0  0
   14.6174   -6.8630   23.3540 O   0  0  0  0  0  0  0  0  0  0  0  0
   14.0562   -5.6251   21.4634 C   0  0  0  0  0  0  0  0  0  0  0  0
   15.1895   -4.8333   21.3895 C   0  0  0  0  0  0  0  0  0  0  0  0
   15.1077   -3.7732   20.0406 S   0  0  0  0  0  0  0  0  0  0  0  0
   13.5830   -4.4300   19.6424 C   0  0  0  0  0  0  0  0  0  0  0  0
   13.1472   -5.3974   20.4220 N   0  0  0  0  0  0  0  0  0  0  0  0
    8.6391   -7.9326   25.1528 C   0  0  0  0  0  0  0  0  0  0  0  0
    8.1756   -9.4278   25.2980 C   0  0  0  0  0  0  0  0  0  0  0  0
    8.2911  -10.5111   24.4410 C   0  0  0  0  0  0  0  0  0  0  0  0
    7.6688  -11.9575   25.1549 S   0  0  0  0  0  0  0  0  0  0  0  0
    7.2072  -11.0649   26.5345 C   0  0  0  0  0  0  0  0  0  0  0  0
    7.4772   -9.7761   26.4914 N   0  0  0  0  0  0  0  0  0  0  0  0
   10.2829   -5.9295   21.5670 H   0  0  0  0  0  0  0  0  0  0  0  0
   11.0828   -4.3386   21.5383 H   0  0  0  0  0  0  0  0  0  0  0  0
    9.3369   -4.4864   21.8367 H   0  0  0  0  0  0  0  0  0  0  0  0
   11.6432   -5.2548   23.7033 H   0  0  0  0  0  0  0  0  0  0  0  0
   10.4945   -3.9657   23.8980 H   0  0  0  0  0  0  0  0  0  0  0  0
    8.6203   -5.5460   24.0513 H   0  0  0  0  0  0  0  0  0  0  0  0
    9.8071   -5.6864   25.3390 H   0  0  0  0  0  0  0  0  0  0  0  0
   10.9414   -8.8518   24.8527 H   0  0  0  0  0  0  0  0  0  0  0  0
   11.6182   -7.2495   24.9409 H   0  0  0  0  0  0  0  0  0  0  0  0
   12.5837   -9.0093   23.2828 H   0  0  0  0  0  0  0  0  0  0  0  0
   11.1452   -8.7677   22.2839 H   0  0  0  0  0  0  0  0  0  0  0  0
   12.0973   -6.8333   21.4635 H   0  0  0  0  0  0  0  0  0  0  0  0
   16.0355   -4.8234   22.0625 H   0  0  0  0  0  0  0  0  0  0  0  0
   13.0226   -4.0777   18.7870 H   0  0  0  0  0  0  0  0  0  0  0  0
    9.0210   -7.6417   26.1414 H   0  0  0  0  0  0  0  0  0  0  0  0
    7.6996   -7.3870   24.9915 H   0  0  0  0  0  0  0  0  0  0  0  0
    8.7429  -10.5323   23.4612 H   0  0  0  0  0  0  0  0  0  0  0  0
    6.7195  -11.5283   27.3812 H   0  0  0  0  0  0  0  0  0  0  0  0
  1  2  1  0
  2  3  1  0
  3  4  1  0
  4  5  1  0
  5  6  1  0
  6  7  1  0
  7  8  1  0
  8  9  2  0
  8 10  1  0
 10 11  2  0
 11 12  1  0
 12 13  1  0
 13 14  2  0
  4 15  1  0
 15 16  1  0
 16 17  2  0
 17 18  1  0
 18 19  1  0
 19 20  2  0
 14 10  1  0
 20 16  1  0
  1 21  1  0
  1 22  1  0
  1 23  1  0
  2 24  1  0
  2 25  1  0
  3 26  1  0
  3 27  1  0
  5 28  1  0
  5 29  1  0
  6 30  1  0
  6 31  1  0
  7 32  1  0
 11 33  1  0
 13 34  1  0
 15 35  1  0
 15 36  1  0
 17 37  1  0
 19 38  1  0
M  END
>  <Energy>  (869) 
67.615524964072492

>  <compound_id>  (869) 
69690

>  <target_id>  (869) 
1

>  <reference_id>  (869) 
71

>  <inspiration_ids>  (869) 
[88, 71]

>  <energy_score>  (869) 
-77.59175119272214

>  <distance_score>  (869) 
14.977089216507652

>  <path>  (869) 
/opt/xchem-fragalysis-2/maxwin/BulkDock/SCRATCH/511015/C69690-P71/C69690-P71.minimised.mol

>  <scratch_subdir>  (869) 
/opt/xchem-fragalysis-2/maxwin/BulkDock/SCRATCH/511015/C69690-P71

>  <fragmenstein_runtime>  (869) 
20.799529790878296

>  <fragmenstein_outcome>  (869) 
too moved

>  <fragmenstein_mode>  (869) 
expansion

>  <fragmenstein_error>  (869) 


$$$$
C69694-P88
     RDKit          3D

 39 40  0  0  0  0  0  0  0  0999 V2000
   -4.7663  -13.9022   28.7129 C   0  0  0  0  0  0  0  0  0  0  0  0
   -3.1308  -12.9368   27.9573 C   0  0  0  0  0  0  0  0  0  0  0  0
   -3.7785  -11.0789   27.7631 C   0  0  0  0  0  0  0  0  0  0  0  0
   -3.1835  -14.3952   26.5507 C   0  0  0  0  0  0  0  0  0  0  0  0
   -1.3498  -13.0085   27.2936 O   0  0  0  0  0  0  0  0  0  0  0  0
   -1.1546  -12.5344   25.8307 C   0  0  0  0  0  0  0  0  0  0  0  0
   -2.2956  -12.5211   25.2417 O   0  0  0  0  0  0  0  0  0  0  0  0
    0.5670  -11.8408   25.0023 N   0  0  0  0  0  0  0  0  0  0  0  0
    0.8438  -11.1298   23.7440 C   0  0  0  0  0  0  0  0  0  0  0  0
    0.7745   -9.7453   23.6602 N   0  0  0  0  0  0  0  0  0  0  0  0
    1.7365   -9.0026   22.8503 C   0  0  0  0  0  0  0  0  0  0  0  0
    2.9889   -9.5398   22.6383 C   0  0  0  0  0  0  0  0  0  0  0  0
    4.2650   -9.0928   21.7532 C   0  0  0  0  0  0  0  0  0  0  0  0
    5.1662   -7.8437   22.0837 C   0  0  0  0  0  0  0  0  0  0  0  0
    6.3950   -7.6752   21.1169 C   0  0  0  0  0  0  0  0  0  0  0  0
    6.4785   -8.3027   20.0598 O   0  0  0  0  0  0  0  0  0  0  0  0
    7.4965   -6.7456   21.4460 C   0  0  0  0  0  0  0  0  0  0  0  0
    8.7980   -6.9453   20.9983 C   0  0  0  0  0  0  0  0  0  0  0  0
    9.8292   -5.6916   21.5436 S   0  0  0  0  0  0  0  0  0  0  0  0
    8.4710   -4.9336   22.2687 C   0  0  0  0  0  0  0  0  0  0  0  0
    7.3171   -5.5603   22.1479 N   0  0  0  0  0  0  0  0  0  0  0  0
    2.9495  -11.0257   23.5637 S   0  0  0  0  0  0  0  0  0  0  0  0
   -5.2424  -14.6457   28.1099 H   0  0  0  0  0  0  0  0  0  0  0  0
   -5.3824  -14.0600   29.6522 H   0  0  0  0  0  0  0  0  0  0  0  0
   -5.6060  -13.0913   28.6618 H   0  0  0  0  0  0  0  0  0  0  0  0
   -3.8945  -10.6073   26.7766 H   0  0  0  0  0  0  0  0  0  0  0  0
   -4.7934  -10.9777   28.1921 H   0  0  0  0  0  0  0  0  0  0  0  0
   -3.1597  -10.2588   28.0972 H   0  0  0  0  0  0  0  0  0  0  0  0
   -3.9962  -15.0389   26.4740 H   0  0  0  0  0  0  0  0  0  0  0  0
   -2.5166  -15.2778   26.6041 H   0  0  0  0  0  0  0  0  0  0  0  0
   -2.5827  -14.2362   25.7140 H   0  0  0  0  0  0  0  0  0  0  0  0
    1.3687  -12.0432   25.6170 H   0  0  0  0  0  0  0  0  0  0  0  0
    1.4202   -8.0241   22.5100 H   0  0  0  0  0  0  0  0  0  0  0  0
    3.8669   -8.9573   20.7377 H   0  0  0  0  0  0  0  0  0  0  0  0
    4.9213   -9.9722   21.6981 H   0  0  0  0  0  0  0  0  0  0  0  0
    5.5489   -7.9467   23.1050 H   0  0  0  0  0  0  0  0  0  0  0  0
    4.5614   -6.9324   22.0304 H   0  0  0  0  0  0  0  0  0  0  0  0
    9.1794   -7.7721   20.4133 H   0  0  0  0  0  0  0  0  0  0  0  0
    8.5670   -3.9939   22.7986 H   0  0  0  0  0  0  0  0  0  0  0  0
  1  2  1  0
  2  3  1  0
  2  4  1  0
  2  5  1  0
  5  6  1  0
  6  7  2  0
  6  8  1  0
  8  9  1  0
  9 10  2  0
 10 11  1  0
 11 12  2  0
 12 13  1  0
 13 14  1  0
 14 15  1  0
 15 16  2  0
 15 17  1  0
 17 18  2  0
 18 19  1  0
 19 20  1  0
 20 21  2  0
 12 22  1  0
 22  9  1  0
 21 17  1  0
  1 23  1  0
  1 24  1  0
  1 25  1  0
  3 26  1  0
  3 27  1  0
  3 28  1  0
  4 29  1  0
  4 30  1  0
  4 31  1  0
  8 32  1  0
 11 33  1  0
 13 34  1  0
 13 35  1  0
 14 36  1  0
 14 37  1  0
 18 38  1  0
 20 39  1  0
M  END
>  <Energy>  (870) 
601.30708443515618

>  <compound_id>  (870) 
69694

>  <target_id>  (870) 
1

>  <reference_id>  (870) 
88

>  <inspiration_ids>  (870) 
[88, 71]

>  <energy_score>  (870) 
496.20832006320444

>  <distance_score>  (870) 
13.784202558551138

>  <path>  (870) 
/opt/xchem-fragalysis-2/maxwin/BulkDock/SCRATCH/511015/C69694-P88/C69694-P88.minimised.mol

>  <scratch_subdir>  (870) 
/opt/xchem-fragalysis-2/maxwin/BulkDock/SCRATCH/511015/C69694-P88

>  <fragmenstein_runtime>  (870) 
24.548682689666748

>  <fragmenstein_outcome>  (870) 
too moved

>  <fragmenstein_mode>  (870) 
expansion

>  <fragmenstein_error>  (870) 


$$$$
C69694-P71
     RDKit          3D

 39 40  0  0  0  0  0  0  0  0999 V2000
   -5.9038  -17.0462   29.3112 C   0  0  0  0  0  0  0  0  0  0  0  0
   -5.3315  -18.0126   27.6639 C   0  0  0  0  0  0  0  0  0  0  0  0
   -5.8923  -19.4886   26.5536 C   0  0  0  0  0  0  0  0  0  0  0  0
   -7.2924  -17.4416   27.7326 C   0  0  0  0  0  0  0  0  0  0  0  0
   -3.6332  -16.9505   27.4450 O   0  0  0  0  0  0  0  0  0  0  0  0
   -2.3058  -15.7331   26.8844 C   0  0  0  0  0  0  0  0  0  0  0  0
   -1.6312  -15.3614   27.8407 O   0  0  0  0  0  0  0  0  0  0  0  0
   -2.0892  -15.3524   25.0283 N   0  0  0  0  0  0  0  0  0  0  0  0
   -0.7405  -14.4251   24.0782 C   0  0  0  0  0  0  0  0  0  0  0  0
   -0.6721  -14.6206   22.5548 N   0  0  0  0  0  0  0  0  0  0  0  0
    0.2270  -13.8577   21.4827 C   0  0  0  0  0  0  0  0  0  0  0  0
    1.1252  -12.9428   21.9718 C   0  0  0  0  0  0  0  0  0  0  0  0
    2.0309  -11.7108   21.3024 C   0  0  0  0  0  0  0  0  0  0  0  0
    3.6116  -11.6670   21.2225 C   0  0  0  0  0  0  0  0  0  0  0  0
    4.3861  -10.2746   21.1293 C   0  0  0  0  0  0  0  0  0  0  0  0
    4.8065   -9.7442   22.1648 O   0  0  0  0  0  0  0  0  0  0  0  0
    4.6887   -9.5834   19.8475 C   0  0  0  0  0  0  0  0  0  0  0  0
    5.3200   -8.3407   19.8071 C   0  0  0  0  0  0  0  0  0  0  0  0
    5.4939   -7.7851   18.1964 S   0  0  0  0  0  0  0  0  0  0  0  0
    4.8012   -9.2530   17.6546 C   0  0  0  0  0  0  0  0  0  0  0  0
    4.4093  -10.0991   18.5886 N   0  0  0  0  0  0  0  0  0  0  0  0
    1.3222  -13.7783   23.4493 S   0  0  0  0  0  0  0  0  0  0  0  0
   -6.5024  -17.5645   30.0556 H   0  0  0  0  0  0  0  0  0  0  0  0
   -5.0536  -16.4681   29.6340 H   0  0  0  0  0  0  0  0  0  0  0  0
   -6.5100  -16.1198   29.1578 H   0  0  0  0  0  0  0  0  0  0  0  0
   -5.1056  -20.0529   26.0221 H   0  0  0  0  0  0  0  0  0  0  0  0
   -6.5256  -20.2560   27.0115 H   0  0  0  0  0  0  0  0  0  0  0  0
   -6.4159  -19.2124   25.6457 H   0  0  0  0  0  0  0  0  0  0  0  0
   -7.8036  -17.4981   28.6985 H   0  0  0  0  0  0  0  0  0  0  0  0
   -7.8507  -18.2150   27.2838 H   0  0  0  0  0  0  0  0  0  0  0  0
   -7.7680  -16.5786   27.2587 H   0  0  0  0  0  0  0  0  0  0  0  0
   -2.8500  -15.7348   24.4940 H   0  0  0  0  0  0  0  0  0  0  0  0
   -0.0769  -14.0314   20.4569 H   0  0  0  0  0  0  0  0  0  0  0  0
    1.6636  -11.6528   20.2676 H   0  0  0  0  0  0  0  0  0  0  0  0
    1.6693  -10.7938   21.7776 H   0  0  0  0  0  0  0  0  0  0  0  0
    4.0018  -12.1569   22.1241 H   0  0  0  0  0  0  0  0  0  0  0  0
    3.9424  -12.2887   20.3819 H   0  0  0  0  0  0  0  0  0  0  0  0
    5.6503   -7.7440   20.6469 H   0  0  0  0  0  0  0  0  0  0  0  0
    4.6789   -9.4653   16.5998 H   0  0  0  0  0  0  0  0  0  0  0  0
  1  2  1  0
  2  3  1  0
  2  4  1  0
  2  5  1  0
  5  6  1  0
  6  7  2  0
  6  8  1  0
  8  9  1  0
  9 10  2  0
 10 11  1  0
 11 12  2  0
 12 13  1  0
 13 14  1  0
 14 15  1  0
 15 16  2  0
 15 17  1  0
 17 18  2  0
 18 19  1  0
 19 20  1  0
 20 21  2  0
 12 22  1  0
 22  9  1  0
 21 17  1  0
  1 23  1  0
  1 24  1  0
  1 25  1  0
  3 26  1  0
  3 27  1  0
  3 28  1  0
  4 29  1  0
  4 30  1  0
  4 31  1  0
  8 32  1  0
 11 33  1  0
 13 34  1  0
 13 35  1  0
 14 36  1  0
 14 37  1  0
 18 38  1  0
 20 39  1  0
M  END
>  <Energy>  (871) 
858.47780879232323

>  <compound_id>  (871) 
69694

>  <target_id>  (871) 
1

>  <reference_id>  (871) 
71

>  <inspiration_ids>  (871) 
[88, 71]

>  <energy_score>  (871) 
753.3790444203798

>  <distance_score>  (871) 
14.793347122685889

>  <path>  (871) 
/opt/xchem-fragalysis-2/maxwin/BulkDock/SCRATCH/511015/C69694-P71/C69694-P71.minimised.mol

>  <scratch_subdir>  (871) 
/opt/xchem-fragalysis-2/maxwin/BulkDock/SCRATCH/511015/C69694-P71

>  <fragmenstein_runtime>  (871) 
21.387712001800537

>  <fragmenstein_outcome>  (871) 
too moved

>  <fragmenstein_mode>  (871) 
expansion

>  <fragmenstein_error>  (871) 


$$$$
C69707-P88
     RDKit          3D

 37 38  0  0  0  0  0  0  0  0999 V2000
   11.7978   -6.3457   22.3090 C   0  0  0  0  0  0  0  0  0  0  0  0
   10.6193   -6.3526   21.3213 C   0  0  0  0  0  0  0  0  0  0  0  0
   10.1194   -7.8004   21.0652 C   0  0  0  0  0  0  0  0  0  0  0  0
    8.6269   -7.9555   20.6483 C   0  0  0  0  0  0  0  0  0  0  0  0
    7.8708   -9.0495   21.3010 N   0  0  0  0  0  0  0  0  0  0  0  0
    6.9635  -10.0658   20.7368 C   0  0  0  0  0  0  0  0  0  0  0  0
    6.6752  -10.3079   19.5982 O   0  0  0  0  0  0  0  0  0  0  0  0
    6.2877  -10.8748   21.9028 C   0  0  0  0  0  0  0  0  0  0  0  0
    5.2982  -11.9863   21.5161 C   0  0  0  0  0  0  0  0  0  0  0  0
    5.5941  -13.3327   21.3540 C   0  0  0  0  0  0  0  0  0  0  0  0
    4.2141  -14.2162   20.8621 S   0  0  0  0  0  0  0  0  0  0  0  0
    3.2822  -12.7818   20.9996 C   0  0  0  0  0  0  0  0  0  0  0  0
    3.9370  -11.7079   21.3871 N   0  0  0  0  0  0  0  0  0  0  0  0
   11.0698   -5.5983   20.1647 N   0  0  0  0  0  0  0  0  0  0  0  0
   12.0715   -5.8900   19.1860 C   0  0  0  0  0  0  0  0  0  0  0  0
   12.7405   -6.8657   19.0213 O   0  0  0  0  0  0  0  0  0  0  0  0
   12.3002   -4.6835   18.3514 C   0  0  0  0  0  0  0  0  0  0  0  0
   13.2246   -4.5878   17.3264 C   0  0  0  0  0  0  0  0  0  0  0  0
   13.1111   -3.0560   16.5582 S   0  0  0  0  0  0  0  0  0  0  0  0
   11.8910   -2.6030   17.6730 C   0  0  0  0  0  0  0  0  0  0  0  0
   11.5852   -3.5024   18.5859 N   0  0  0  0  0  0  0  0  0  0  0  0
   12.1419   -5.3238   22.5049 H   0  0  0  0  0  0  0  0  0  0  0  0
   12.6485   -6.9172   21.9217 H   0  0  0  0  0  0  0  0  0  0  0  0
   11.5018   -6.7871   23.2666 H   0  0  0  0  0  0  0  0  0  0  0  0
    9.8069   -5.7686   21.7693 H   0  0  0  0  0  0  0  0  0  0  0  0
   10.7492   -8.2997   20.3196 H   0  0  0  0  0  0  0  0  0  0  0  0
   10.2468   -8.3693   21.9959 H   0  0  0  0  0  0  0  0  0  0  0  0
    8.0746   -7.0438   20.8985 H   0  0  0  0  0  0  0  0  0  0  0  0
    8.5532   -8.0980   19.5652 H   0  0  0  0  0  0  0  0  0  0  0  0
    7.9383   -9.1842   22.3040 H   0  0  0  0  0  0  0  0  0  0  0  0
    7.0899  -11.3229   22.5025 H   0  0  0  0  0  0  0  0  0  0  0  0
    5.7584  -10.1544   22.5372 H   0  0  0  0  0  0  0  0  0  0  0  0
    6.5557  -13.8169   21.4445 H   0  0  0  0  0  0  0  0  0  0  0  0
    2.2222  -12.7573   20.7827 H   0  0  0  0  0  0  0  0  0  0  0  0
   10.7670   -4.6298   20.0511 H   0  0  0  0  0  0  0  0  0  0  0  0
   13.9153   -5.3448   16.9794 H   0  0  0  0  0  0  0  0  0  0  0  0
   11.4083   -1.6337   17.6294 H   0  0  0  0  0  0  0  0  0  0  0  0
  1  2  1  0
  2  3  1  0
  3  4  1  0
  4  5  1  0
  5  6  1  0
  6  7  2  0
  6  8  1  0
  8  9  1  0
  9 10  2  0
 10 11  1  0
 11 12  1  0
 12 13  2  0
  2 14  1  0
 14 15  1  0
 15 16  2  0
 15 17  1  0
 17 18  2  0
 18 19  1  0
 19 20  1  0
 20 21  2  0
 13  9  1  0
 21 17  1  0
  1 22  1  0
  1 23  1  0
  1 24  1  0
  2 25  1  0
  3 26  1  0
  3 27  1  0
  4 28  1  0
  4 29  1  0
  5 30  1  0
  8 31  1  0
  8 32  1  0
 10 33  1  0
 12 34  1  0
 14 35  1  0
 18 36  1  0
 20 37  1  0
M  END
>  <Energy>  (872) 
37.558832463631425

>  <compound_id>  (872) 
69707

>  <target_id>  (872) 
1

>  <reference_id>  (872) 
88

>  <inspiration_ids>  (872) 
[88, 71]

>  <energy_score>  (872) 
-104.57632836027636

>  <distance_score>  (872) 
13.64947400071628

>  <path>  (872) 
/opt/xchem-fragalysis-2/maxwin/BulkDock/SCRATCH/511015/C69707-P88/C69707-P88.minimised.mol

>  <scratch_subdir>  (872) 
/opt/xchem-fragalysis-2/maxwin/BulkDock/SCRATCH/511015/C69707-P88

>  <fragmenstein_runtime>  (872) 
15.989763975143433

>  <fragmenstein_outcome>  (872) 
too moved

>  <fragmenstein_mode>  (872) 
expansion

>  <fragmenstein_error>  (872) 


$$$$
C69707-P71
     RDKit          3D

 37 38  0  0  0  0  0  0  0  0999 V2000
    8.1398   -4.2514   27.0869 C   0  0  0  0  0  0  0  0  0  0  0  0
    7.5750   -5.4196   26.2692 C   0  0  0  0  0  0  0  0  0  0  0  0
    7.2117   -6.6745   27.1102 C   0  0  0  0  0  0  0  0  0  0  0  0
    5.9597   -6.4299   28.0182 C   0  0  0  0  0  0  0  0  0  0  0  0
    5.3227   -7.5049   28.8176 N   0  0  0  0  0  0  0  0  0  0  0  0
    5.0397   -8.8862   28.4961 C   0  0  0  0  0  0  0  0  0  0  0  0
    5.3203   -9.5349   27.5300 O   0  0  0  0  0  0  0  0  0  0  0  0
    4.1331   -9.6005   29.5673 C   0  0  0  0  0  0  0  0  0  0  0  0
    2.6975  -10.3085   29.1347 C   0  0  0  0  0  0  0  0  0  0  0  0
    1.8506   -9.9325   28.1269 C   0  0  0  0  0  0  0  0  0  0  0  0
    0.1766   -9.7955   28.3246 S   0  0  0  0  0  0  0  0  0  0  0  0
    0.5676  -10.5673   29.7242 C   0  0  0  0  0  0  0  0  0  0  0  0
    1.8242  -10.8329   30.0576 N   0  0  0  0  0  0  0  0  0  0  0  0
    8.5113   -5.6574   25.1880 N   0  0  0  0  0  0  0  0  0  0  0  0
    9.9075   -5.9566   25.2061 C   0  0  0  0  0  0  0  0  0  0  0  0
   10.6490   -6.1671   26.1191 O   0  0  0  0  0  0  0  0  0  0  0  0
   10.4316   -5.8742   23.8226 C   0  0  0  0  0  0  0  0  0  0  0  0
   11.7761   -5.8984   23.4884 C   0  0  0  0  0  0  0  0  0  0  0  0
   11.9841   -5.6403   21.8104 S   0  0  0  0  0  0  0  0  0  0  0  0
   10.2832   -5.5573   21.6398 C   0  0  0  0  0  0  0  0  0  0  0  0
    9.5692   -5.6608   22.7372 N   0  0  0  0  0  0  0  0  0  0  0  0
    8.4042   -3.4065   26.4407 H   0  0  0  0  0  0  0  0  0  0  0  0
    9.0385   -4.5457   27.6392 H   0  0  0  0  0  0  0  0  0  0  0  0
    7.4047   -3.8919   27.8134 H   0  0  0  0  0  0  0  0  0  0  0  0
    6.6607   -5.0709   25.7731 H   0  0  0  0  0  0  0  0  0  0  0  0
    6.9920   -7.5095   26.4340 H   0  0  0  0  0  0  0  0  0  0  0  0
    8.0610   -6.9873   27.7285 H   0  0  0  0  0  0  0  0  0  0  0  0
    5.1548   -6.0365   27.3879 H   0  0  0  0  0  0  0  0  0  0  0  0
    6.2021   -5.6491   28.7470 H   0  0  0  0  0  0  0  0  0  0  0  0
    4.8602   -7.2665   29.6872 H   0  0  0  0  0  0  0  0  0  0  0  0
    4.8603  -10.3121   29.9386 H   0  0  0  0  0  0  0  0  0  0  0  0
    3.9332   -8.9383   30.4158 H   0  0  0  0  0  0  0  0  0  0  0  0
    1.8914   -9.0170   27.6456 H   0  0  0  0  0  0  0  0  0  0  0  0
   -0.3316  -10.7882   30.2395 H   0  0  0  0  0  0  0  0  0  0  0  0
    8.1927   -5.6206   24.2196 H   0  0  0  0  0  0  0  0  0  0  0  0
   12.6215   -6.0201   24.1516 H   0  0  0  0  0  0  0  0  0  0  0  0
    9.8143   -5.4419   20.6773 H   0  0  0  0  0  0  0  0  0  0  0  0
  1  2  1  0
  2  3  1  0
  3  4  1  0
  4  5  1  0
  5  6  1  0
  6  7  2  0
  6  8  1  0
  8  9  1  0
  9 10  2  0
 10 11  1  0
 11 12  1  0
 12 13  2  0
  2 14  1  0
 14 15  1  0
 15 16  2  0
 15 17  1  0
 17 18  2  0
 18 19  1  0
 19 20  1  0
 20 21  2  0
 13  9  1  0
 21 17  1  0
  1 22  1  0
  1 23  1  0
  1 24  1  0
  2 25  1  0
  3 26  1  0
  3 27  1  0
  4 28  1  0
  4 29  1  0
  5 30  1  0
  8 31  1  0
  8 32  1  0
 10 33  1  0
 12 34  1  0
 14 35  1  0
 18 36  1  0
 20 37  1  0
M  END
>  <Energy>  (873) 
95.632333644224389

>  <compound_id>  (873) 
69707

>  <target_id>  (873) 
1

>  <reference_id>  (873) 
71

>  <inspiration_ids>  (873) 
[88, 71]

>  <energy_score>  (873) 
-46.50282717968258

>  <distance_score>  (873) 
14.62598732348871

>  <path>  (873) 
/opt/xchem-fragalysis-2/maxwin/BulkDock/SCRATCH/511015/C69707-P71/C69707-P71.minimised.mol

>  <scratch_subdir>  (873) 
/opt/xchem-fragalysis-2/maxwin/BulkDock/SCRATCH/511015/C69707-P71

>  <fragmenstein_runtime>  (873) 
24.061453819274902

>  <fragmenstein_outcome>  (873) 
too moved

>  <fragmenstein_mode>  (873) 
expansion

>  <fragmenstein_error>  (873) 


$$$$
C69708-P88
     RDKit          3D

 43 44  0  0  0  0  0  0  0  0999 V2000
   13.1607   -9.6301   20.2189 C   0  0  0  0  0  0  0  0  0  0  0  0
   11.9417   -9.1702   19.4315 C   0  0  0  0  0  0  0  0  0  0  0  0
   11.6792   -7.6992   19.5773 C   0  0  0  0  0  0  0  0  0  0  0  0
   12.6793   -6.5823   18.7137 S   0  0  0  0  0  0  0  0  0  0  0  0
   11.7341   -5.2867   19.2866 C   0  0  0  0  0  0  0  0  0  0  0  0
   10.7328   -5.6188   20.0677 N   0  0  0  0  0  0  0  0  0  0  0  0
   10.6932   -7.0089   20.2801 C   0  0  0  0  0  0  0  0  0  0  0  0
    9.6115   -7.5614   21.1664 C   0  0  0  0  0  0  0  0  0  0  0  0
    8.5354   -7.0468   21.0851 O   0  0  0  0  0  0  0  0  0  0  0  0
   10.0944   -8.5781   22.0459 N   0  0  0  0  0  0  0  0  0  0  0  0
    9.4612   -9.2422   23.1857 C   0  0  0  0  0  0  0  0  0  0  0  0
   10.5703   -9.4354   24.2188 C   0  0  0  0  0  0  0  0  0  0  0  0
    8.6715  -10.5394   22.8290 C   0  0  0  0  0  0  0  0  0  0  0  0
    7.9201  -11.1975   24.0537 C   0  0  0  0  0  0  0  0  0  0  0  0
    7.0085  -12.3514   23.8306 N   0  0  0  0  0  0  0  0  0  0  0  0
    6.4489  -13.3463   24.7840 C   0  0  0  0  0  0  0  0  0  0  0  0
    6.6598  -13.5090   25.9549 O   0  0  0  0  0  0  0  0  0  0  0  0
    5.4392  -14.3111   24.0584 C   0  0  0  0  0  0  0  0  0  0  0  0
    4.5250  -15.2853   24.8693 C   0  0  0  0  0  0  0  0  0  0  0  0
    4.2138  -15.3368   26.2196 C   0  0  0  0  0  0  0  0  0  0  0  0
    3.0446  -16.5648   26.5679 S   0  0  0  0  0  0  0  0  0  0  0  0
    3.0673  -17.0132   24.9183 C   0  0  0  0  0  0  0  0  0  0  0  0
    3.8345  -16.2744   24.1411 N   0  0  0  0  0  0  0  0  0  0  0  0
   13.0699   -9.3925   21.2833 H   0  0  0  0  0  0  0  0  0  0  0  0
   13.2829  -10.7138   20.1230 H   0  0  0  0  0  0  0  0  0  0  0  0
   14.0771   -9.1576   19.8499 H   0  0  0  0  0  0  0  0  0  0  0  0
   12.0825   -9.4169   18.3716 H   0  0  0  0  0  0  0  0  0  0  0  0
   11.0667   -9.7430   19.7578 H   0  0  0  0  0  0  0  0  0  0  0  0
   11.9410   -4.2582   19.0155 H   0  0  0  0  0  0  0  0  0  0  0  0
   11.0841   -8.7103   21.8841 H   0  0  0  0  0  0  0  0  0  0  0  0
    8.7367   -8.5220   23.5858 H   0  0  0  0  0  0  0  0  0  0  0  0
   10.1679   -9.8020   25.1677 H   0  0  0  0  0  0  0  0  0  0  0  0
   11.3176  -10.1546   23.8649 H   0  0  0  0  0  0  0  0  0  0  0  0
   11.0883   -8.4916   24.4245 H   0  0  0  0  0  0  0  0  0  0  0  0
    9.3503  -11.2814   22.3912 H   0  0  0  0  0  0  0  0  0  0  0  0
    7.9308  -10.3057   22.0541 H   0  0  0  0  0  0  0  0  0  0  0  0
    8.6493  -11.5325   24.7986 H   0  0  0  0  0  0  0  0  0  0  0  0
    7.3019  -10.4324   24.5372 H   0  0  0  0  0  0  0  0  0  0  0  0
    6.5434  -12.4509   22.9344 H   0  0  0  0  0  0  0  0  0  0  0  0
    4.7736  -13.6846   23.4536 H   0  0  0  0  0  0  0  0  0  0  0  0
    6.0357  -14.9273   23.3739 H   0  0  0  0  0  0  0  0  0  0  0  0
    4.6113  -14.7189   27.0123 H   0  0  0  0  0  0  0  0  0  0  0  0
    2.4768  -17.8332   24.5268 H   0  0  0  0  0  0  0  0  0  0  0  0
  1  2  1  0
  2  3  1  0
  3  4  1  0
  4  5  1  0
  5  6  2  0
  6  7  1  0
  7  8  1  0
  8  9  2  0
  8 10  1  0
 10 11  1  0
 11 12  1  0
 11 13  1  0
 13 14  1  0
 14 15  1  0
 15 16  1  0
 16 17  2  0
 16 18  1  0
 18 19  1  0
 19 20  2  0
 20 21  1  0
 21 22  1  0
 22 23  2  0
  7  3  2  0
 23 19  1  0
  1 24  1  0
  1 25  1  0
  1 26  1  0
  2 27  1  0
  2 28  1  0
  5 29  1  0
 10 30  1  0
 11 31  1  0
 12 32  1  0
 12 33  1  0
 12 34  1  0
 13 35  1  0
 13 36  1  0
 14 37  1  0
 14 38  1  0
 15 39  1  0
 18 40  1  0
 18 41  1  0
 20 42  1  0
 22 43  1  0
M  END
>  <Energy>  (874) 
54.219664426277653

>  <compound_id>  (874) 
69708

>  <target_id>  (874) 
1

>  <reference_id>  (874) 
88

>  <inspiration_ids>  (874) 
[88, 71]

>  <energy_score>  (874) 
-87.25250214876954

>  <distance_score>  (874) 
13.774859908646555

>  <path>  (874) 
/opt/xchem-fragalysis-2/maxwin/BulkDock/SCRATCH/511015/C69708-P88/C69708-P88.minimised.mol

>  <scratch_subdir>  (874) 
/opt/xchem-fragalysis-2/maxwin/BulkDock/SCRATCH/511015/C69708-P88

>  <fragmenstein_runtime>  (874) 
17.44672179222107

>  <fragmenstein_outcome>  (874) 
too moved

>  <fragmenstein_mode>  (874) 
expansion

>  <fragmenstein_error>  (874) 


$$$$
C69708-P71
     RDKit          3D

 43 44  0  0  0  0  0  0  0  0999 V2000
   11.2001   -7.9595   26.6568 C   0  0  0  0  0  0  0  0  0  0  0  0
   10.4216   -7.0514   25.7162 C   0  0  0  0  0  0  0  0  0  0  0  0
   10.8248   -7.2472   24.2850 C   0  0  0  0  0  0  0  0  0  0  0  0
   12.0933   -6.2885   23.6209 S   0  0  0  0  0  0  0  0  0  0  0  0
   11.9074   -7.0901   22.1295 C   0  0  0  0  0  0  0  0  0  0  0  0
   10.9770   -8.0167   22.0764 N   0  0  0  0  0  0  0  0  0  0  0  0
   10.3566   -8.1536   23.3394 C   0  0  0  0  0  0  0  0  0  0  0  0
    9.3535   -9.2476   23.5788 C   0  0  0  0  0  0  0  0  0  0  0  0
    8.9327   -9.4585   24.6771 O   0  0  0  0  0  0  0  0  0  0  0  0
    9.1431   -9.9402   22.3541 N   0  0  0  0  0  0  0  0  0  0  0  0
    8.4282  -11.1816   22.0630 C   0  0  0  0  0  0  0  0  0  0  0  0
    8.5029  -11.3369   20.5385 C   0  0  0  0  0  0  0  0  0  0  0  0
    6.9655  -11.3180   22.5980 C   0  0  0  0  0  0  0  0  0  0  0  0
    6.5662  -12.8289   22.9355 C   0  0  0  0  0  0  0  0  0  0  0  0
    5.1242  -13.1678   23.0888 N   0  0  0  0  0  0  0  0  0  0  0  0
    4.4451  -14.2620   23.8857 C   0  0  0  0  0  0  0  0  0  0  0  0
    4.9022  -15.0671   24.6465 O   0  0  0  0  0  0  0  0  0  0  0  0
    2.8906  -14.2064   23.5075 C   0  0  0  0  0  0  0  0  0  0  0  0
    1.4326  -15.4514   23.9096 C   0  0  0  0  0  0  0  0  0  0  0  0
   -0.5477  -15.5204   24.6467 C   0  0  0  0  0  0  0  0  0  0  0  0
   -0.7926  -17.8548   25.7716 S   0  0  0  0  0  0  0  0  0  0  0  0
    1.0957  -18.7221   24.8222 C   0  0  0  0  0  0  0  0  0  0  0  0
    2.1124  -17.3257   24.7672 N   0  0  0  0  0  0  0  0  0  0  0  0
   11.0514   -9.0159   26.4107 H   0  0  0  0  0  0  0  0  0  0  0  0
   12.2748   -7.7538   26.6083 H   0  0  0  0  0  0  0  0  0  0  0  0
   10.8729   -7.8030   27.6895 H   0  0  0  0  0  0  0  0  0  0  0  0
    9.3473   -7.2335   25.8313 H   0  0  0  0  0  0  0  0  0  0  0  0
   10.5789   -6.0073   26.0147 H   0  0  0  0  0  0  0  0  0  0  0  0
   12.5282   -6.8245   21.2869 H   0  0  0  0  0  0  0  0  0  0  0  0
    9.7325   -9.5221   21.6312 H   0  0  0  0  0  0  0  0  0  0  0  0
    9.0329  -11.9679   22.5308 H   0  0  0  0  0  0  0  0  0  0  0  0
    7.9840  -10.5158   20.0307 H   0  0  0  0  0  0  0  0  0  0  0  0
    9.5423  -11.3396   20.1906 H   0  0  0  0  0  0  0  0  0  0  0  0
    8.0430  -12.2782   20.2209 H   0  0  0  0  0  0  0  0  0  0  0  0
    6.2555  -10.9126   21.8674 H   0  0  0  0  0  0  0  0  0  0  0  0
    6.8358  -10.7353   23.5163 H   0  0  0  0  0  0  0  0  0  0  0  0
    7.0746  -13.1471   23.8519 H   0  0  0  0  0  0  0  0  0  0  0  0
    6.9215  -13.4755   22.1257 H   0  0  0  0  0  0  0  0  0  0  0  0
    4.4432  -12.7248   22.4800 H   0  0  0  0  0  0  0  0  0  0  0  0
    2.5607  -13.2282   23.8820 H   0  0  0  0  0  0  0  0  0  0  0  0
    3.0998  -14.3025   22.4327 H   0  0  0  0  0  0  0  0  0  0  0  0
   -1.4078  -14.8668   24.7265 H   0  0  0  0  0  0  0  0  0  0  0  0
    1.4143  -19.6620   25.2587 H   0  0  0  0  0  0  0  0  0  0  0  0
  1  2  1  0
  2  3  1  0
  3  4  1  0
  4  5  1  0
  5  6  2  0
  6  7  1  0
  7  8  1  0
  8  9  2  0
  8 10  1  0
 10 11  1  0
 11 12  1  0
 11 13  1  0
 13 14  1  0
 14 15  1  0
 15 16  1  0
 16 17  2  0
 16 18  1  0
 18 19  1  0
 19 20  2  0
 20 21  1  0
 21 22  1  0
 22 23  2  0
  7  3  2  0
 23 19  1  0
  1 24  1  0
  1 25  1  0
  1 26  1  0
  2 27  1  0
  2 28  1  0
  5 29  1  0
 10 30  1  0
 11 31  1  0
 12 32  1  0
 12 33  1  0
 12 34  1  0
 13 35  1  0
 13 36  1  0
 14 37  1  0
 14 38  1  0
 15 39  1  0
 18 40  1  0
 18 41  1  0
 20 42  1  0
 22 43  1  0
M  END
>  <Energy>  (875) 
856.11450750665927

>  <compound_id>  (875) 
69708

>  <target_id>  (875) 
1

>  <reference_id>  (875) 
71

>  <inspiration_ids>  (875) 
[88, 71]

>  <energy_score>  (875) 
714.6423409316114

>  <distance_score>  (875) 
13.944359528162833

>  <path>  (875) 
/opt/xchem-fragalysis-2/maxwin/BulkDock/SCRATCH/511015/C69708-P71/C69708-P71.minimised.mol

>  <scratch_subdir>  (875) 
/opt/xchem-fragalysis-2/maxwin/BulkDock/SCRATCH/511015/C69708-P71

>  <fragmenstein_runtime>  (875) 
23.219656705856323

>  <fragmenstein_outcome>  (875) 
too moved

>  <fragmenstein_mode>  (875) 
expansion

>  <fragmenstein_error>  (875) 


$$$$
C69722-P88
     RDKit          3D

 44 46  0  0  0  0  0  0  0  0999 V2000
   11.2802   -9.8265   23.4859 C   0  0  0  0  0  0  0  0  0  0  0  0
   10.5715  -11.0765   22.9190 C   0  0  0  0  0  0  0  0  0  0  0  0
    9.0616  -10.8902   22.4968 C   0  0  0  0  0  0  0  0  0  0  0  0
    8.1313  -10.8449   23.7463 C   0  0  0  0  0  0  0  0  0  0  0  0
    6.7962  -11.4960   23.7972 N   0  0  0  0  0  0  0  0  0  0  0  0
    6.3623  -13.1593   23.8205 C   0  0  0  0  0  0  0  0  0  0  0  0
    7.1027  -14.1032   23.7113 O   0  0  0  0  0  0  0  0  0  0  0  0
    4.2538  -13.0842   24.0560 C   0  0  0  0  0  0  0  0  0  0  0  0
    3.3837  -14.3505   25.4351 C   0  0  0  0  0  0  0  0  0  0  0  0
    2.4904  -14.2123   26.4661 N   0  0  0  0  0  0  0  0  0  0  0  0
    1.8268  -15.3957   26.9843 C   0  0  0  0  0  0  0  0  0  0  0  0
    0.7618  -15.3224   28.1828 C   0  0  0  0  0  0  0  0  0  0  0  0
   -0.6323  -15.8939   27.9869 C   0  0  0  0  0  0  0  0  0  0  0  0
    0.3102  -16.5522   28.9472 C   0  0  0  0  0  0  0  0  0  0  0  0
    2.0814  -16.5779   26.3529 C   0  0  0  0  0  0  0  0  0  0  0  0
    2.8544  -16.3333   24.8529 S   0  0  0  0  0  0  0  0  0  0  0  0
    9.1701   -9.6849   21.6791 N   0  0  0  0  0  0  0  0  0  0  0  0
    9.2408   -9.5175   20.2683 C   0  0  0  0  0  0  0  0  0  0  0  0
    9.1464  -10.3120   19.3824 O   0  0  0  0  0  0  0  0  0  0  0  0
    9.5877   -8.1053   19.9556 C   0  0  0  0  0  0  0  0  0  0  0  0
   10.2873   -7.7729   18.8041 C   0  0  0  0  0  0  0  0  0  0  0  0
   11.1145   -6.2872   19.0204 S   0  0  0  0  0  0  0  0  0  0  0  0
   10.3275   -6.0898   20.5266 C   0  0  0  0  0  0  0  0  0  0  0  0
    9.5448   -7.0775   20.9118 N   0  0  0  0  0  0  0  0  0  0  0  0
   12.2644  -10.1093   23.8734 H   0  0  0  0  0  0  0  0  0  0  0  0
   10.7037   -9.3907   24.3072 H   0  0  0  0  0  0  0  0  0  0  0  0
   11.4402   -9.0632   22.7189 H   0  0  0  0  0  0  0  0  0  0  0  0
   11.1404  -11.4042   22.0381 H   0  0  0  0  0  0  0  0  0  0  0  0
   10.6426  -11.8944   23.6462 H   0  0  0  0  0  0  0  0  0  0  0  0
    8.7910  -11.7291   21.8496 H   0  0  0  0  0  0  0  0  0  0  0  0
    8.6598  -11.3219   24.5794 H   0  0  0  0  0  0  0  0  0  0  0  0
    7.9571   -9.8016   24.0327 H   0  0  0  0  0  0  0  0  0  0  0  0
    5.9525  -10.9250   23.8275 H   0  0  0  0  0  0  0  0  0  0  0  0
    3.9448  -13.2892   23.0185 H   0  0  0  0  0  0  0  0  0  0  0  0
    3.8197  -12.1160   24.3449 H   0  0  0  0  0  0  0  0  0  0  0  0
    0.8361  -14.4012   28.7500 H   0  0  0  0  0  0  0  0  0  0  0  0
   -1.4654  -15.3307   28.3927 H   0  0  0  0  0  0  0  0  0  0  0  0
   -0.8595  -16.4098   27.0614 H   0  0  0  0  0  0  0  0  0  0  0  0
    0.1121  -16.4376   30.0078 H   0  0  0  0  0  0  0  0  0  0  0  0
    0.7103  -17.5240   28.6886 H   0  0  0  0  0  0  0  0  0  0  0  0
    1.6961  -17.5596   26.5811 H   0  0  0  0  0  0  0  0  0  0  0  0
    9.2120   -8.7697   22.1233 H   0  0  0  0  0  0  0  0  0  0  0  0
   10.4868   -8.4100   17.9522 H   0  0  0  0  0  0  0  0  0  0  0  0
   10.4879   -5.2062   21.1321 H   0  0  0  0  0  0  0  0  0  0  0  0
  1  2  1  0
  2  3  1  0
  3  4  1  0
  4  5  1  0
  5  6  1  0
  6  7  2  0
  6  8  1  0
  8  9  1  0
  9 10  2  0
 10 11  1  0
 11 12  1  0
 12 13  1  0
 13 14  1  0
 11 15  2  0
 15 16  1  0
  3 17  1  0
 17 18  1  0
 18 19  2  0
 18 20  1  0
 20 21  2  0
 21 22  1  0
 22 23  1  0
 23 24  2  0
 16  9  1  0
 24 20  1  0
 14 12  1  0
  1 25  1  0
  1 26  1  0
  1 27  1  0
  2 28  1  0
  2 29  1  0
  3 30  1  0
  4 31  1  0
  4 32  1  0
  5 33  1  0
  8 34  1  0
  8 35  1  0
 12 36  1  0
 13 37  1  0
 13 38  1  0
 14 39  1  0
 14 40  1  0
 15 41  1  0
 17 42  1  0
 21 43  1  0
 23 44  1  0
M  END
>  <Energy>  (876) 
277.31406160569225

>  <compound_id>  (876) 
69722

>  <target_id>  (876) 
1

>  <reference_id>  (876) 
88

>  <inspiration_ids>  (876) 
[88, 71]

>  <energy_score>  (876) 
135.31795848859895

>  <distance_score>  (876) 
13.24126475390206

>  <path>  (876) 
/opt/xchem-fragalysis-2/maxwin/BulkDock/SCRATCH/511015/C69722-P88/C69722-P88.minimised.mol

>  <scratch_subdir>  (876) 
/opt/xchem-fragalysis-2/maxwin/BulkDock/SCRATCH/511015/C69722-P88

>  <fragmenstein_runtime>  (876) 
27.985779523849487

>  <fragmenstein_outcome>  (876) 
too moved

>  <fragmenstein_mode>  (876) 
expansion

>  <fragmenstein_error>  (876) 


$$$$
C69722-P71
     RDKit          3D

 44 46  0  0  0  0  0  0  0  0999 V2000
    8.9297   -9.6047   26.7772 C   0  0  0  0  0  0  0  0  0  0  0  0
    7.7814  -10.6270   26.9534 C   0  0  0  0  0  0  0  0  0  0  0  0
    8.0583  -12.0829   26.4619 C   0  0  0  0  0  0  0  0  0  0  0  0
    6.8297  -13.1044   26.4457 C   0  0  0  0  0  0  0  0  0  0  0  0
    5.9812  -13.6082   27.5742 N   0  0  0  0  0  0  0  0  0  0  0  0
    5.0285  -14.7665   27.6413 C   0  0  0  0  0  0  0  0  0  0  0  0
    4.7772  -15.6172   26.8303 O   0  0  0  0  0  0  0  0  0  0  0  0
    4.2357  -14.8557   29.0153 C   0  0  0  0  0  0  0  0  0  0  0  0
    2.7997  -15.5556   29.0103 C   0  0  0  0  0  0  0  0  0  0  0  0
    2.4956  -16.8308   29.2725 N   0  0  0  0  0  0  0  0  0  0  0  0
    1.1006  -17.0424   29.3359 C   0  0  0  0  0  0  0  0  0  0  0  0
    0.4710  -18.4626   29.6559 C   0  0  0  0  0  0  0  0  0  0  0  0
   -0.6994  -18.5843   30.6119 C   0  0  0  0  0  0  0  0  0  0  0  0
   -0.8985  -18.8628   29.1522 C   0  0  0  0  0  0  0  0  0  0  0  0
    0.3441  -15.9130   29.1369 C   0  0  0  0  0  0  0  0  0  0  0  0
    1.3748  -14.5543   28.9429 S   0  0  0  0  0  0  0  0  0  0  0  0
    8.6193  -11.9149   25.0933 N   0  0  0  0  0  0  0  0  0  0  0  0
    9.9723  -11.7448   24.6453 C   0  0  0  0  0  0  0  0  0  0  0  0
   11.0036  -11.7747   25.2496 O   0  0  0  0  0  0  0  0  0  0  0  0
   10.0274  -11.3772   23.1926 C   0  0  0  0  0  0  0  0  0  0  0  0
   11.1969  -10.9921   22.5454 C   0  0  0  0  0  0  0  0  0  0  0  0
   10.8999  -10.6422   20.8955 S   0  0  0  0  0  0  0  0  0  0  0  0
    9.2529  -11.0128   21.1377 C   0  0  0  0  0  0  0  0  0  0  0  0
    8.8933  -11.3121   22.3705 N   0  0  0  0  0  0  0  0  0  0  0  0
    9.0878   -9.3532   25.7250 H   0  0  0  0  0  0  0  0  0  0  0  0
    8.6743   -8.6765   27.2988 H   0  0  0  0  0  0  0  0  0  0  0  0
    9.8604   -9.9894   27.2041 H   0  0  0  0  0  0  0  0  0  0  0  0
    7.5122  -10.6743   28.0154 H   0  0  0  0  0  0  0  0  0  0  0  0
    6.9103  -10.2267   26.4287 H   0  0  0  0  0  0  0  0  0  0  0  0
    8.8543  -12.5088   27.0839 H   0  0  0  0  0  0  0  0  0  0  0  0
    7.1924  -14.0223   25.9699 H   0  0  0  0  0  0  0  0  0  0  0  0
    6.1152  -12.6765   25.7485 H   0  0  0  0  0  0  0  0  0  0  0  0
    5.8781  -13.0439   28.4075 H   0  0  0  0  0  0  0  0  0  0  0  0
    4.1213  -13.8443   29.4219 H   0  0  0  0  0  0  0  0  0  0  0  0
    4.8661  -15.4272   29.7070 H   0  0  0  0  0  0  0  0  0  0  0  0
    1.2227  -19.2457   29.6974 H   0  0  0  0  0  0  0  0  0  0  0  0
   -1.1296  -17.6808   31.0264 H   0  0  0  0  0  0  0  0  0  0  0  0
   -0.6850  -19.4234   31.2983 H   0  0  0  0  0  0  0  0  0  0  0  0
   -1.0333  -19.8939   28.8437 H   0  0  0  0  0  0  0  0  0  0  0  0
   -1.4669  -18.1540   28.5626 H   0  0  0  0  0  0  0  0  0  0  0  0
   -0.7295  -15.8018   29.1361 H   0  0  0  0  0  0  0  0  0  0  0  0
    7.9866  -11.7408   24.3118 H   0  0  0  0  0  0  0  0  0  0  0  0
   12.1909  -10.9228   22.9667 H   0  0  0  0  0  0  0  0  0  0  0  0
    8.5436  -10.9929   20.3201 H   0  0  0  0  0  0  0  0  0  0  0  0
  1  2  1  0
  2  3  1  0
  3  4  1  0
  4  5  1  0
  5  6  1  0
  6  7  2  0
  6  8  1  0
  8  9  1  0
  9 10  2  0
 10 11  1  0
 11 12  1  0
 12 13  1  0
 13 14  1  0
 11 15  2  0
 15 16  1  0
  3 17  1  0
 17 18  1  0
 18 19  2  0
 18 20  1  0
 20 21  2  0
 21 22  1  0
 22 23  1  0
 23 24  2  0
 16  9  1  0
 24 20  1  0
 14 12  1  0
  1 25  1  0
  1 26  1  0
  1 27  1  0
  2 28  1  0
  2 29  1  0
  3 30  1  0
  4 31  1  0
  4 32  1  0
  5 33  1  0
  8 34  1  0
  8 35  1  0
 12 36  1  0
 13 37  1  0
 13 38  1  0
 14 39  1  0
 14 40  1  0
 15 41  1  0
 17 42  1  0
 21 43  1  0
 23 44  1  0
M  END
>  <Energy>  (877) 
71.790079488486271

>  <compound_id>  (877) 
69722

>  <target_id>  (877) 
1

>  <reference_id>  (877) 
71

>  <inspiration_ids>  (877) 
[88, 71]

>  <energy_score>  (877) 
-70.20602362859967

>  <distance_score>  (877) 
14.572523153322658

>  <path>  (877) 
/opt/xchem-fragalysis-2/maxwin/BulkDock/SCRATCH/511015/C69722-P71/C69722-P71.minimised.mol

>  <scratch_subdir>  (877) 
/opt/xchem-fragalysis-2/maxwin/BulkDock/SCRATCH/511015/C69722-P71

>  <fragmenstein_runtime>  (877) 
34.96574687957764

>  <fragmenstein_outcome>  (877) 
too moved

>  <fragmenstein_mode>  (877) 
expansion

>  <fragmenstein_error>  (877) 


$$$$
C69732-P70
     RDKit          3D

 48 51  0  0  0  0  0  0  0  0999 V2000
    2.2411   -0.0724   27.9427 C   0  0  0  0  0  0  0  0  0  0  0  0
    3.3158    0.6164   27.3934 C   0  0  0  0  0  0  0  0  0  0  0  0
    4.1933   -0.0327   26.5086 C   0  0  0  0  0  0  0  0  0  0  0  0
    3.9956   -1.3533   26.0959 C   0  0  0  0  0  0  0  0  0  0  0  0
    4.9290   -2.0867   25.0808 C   0  0  0  0  0  0  0  0  0  0  0  0
    4.9398   -1.6232   23.6097 C   0  0  0  0  0  0  0  0  0  0  0  0
    5.5844   -1.7676   21.9357 C   0  0  0  0  0  0  0  0  0  0  0  0
    7.3172   -1.5876   20.7817 C   0  0  0  0  0  0  0  0  0  0  0  0
    7.0419   -0.7658   19.2970 C   0  0  0  0  0  0  0  0  0  0  0  0
    5.6281   -1.9206   18.4187 C   0  0  0  0  0  0  0  0  0  0  0  0
    5.7087   -3.6297   19.5696 C   0  0  0  0  0  0  0  0  0  0  0  0
    7.5670   -4.3598   20.0417 C   0  0  0  0  0  0  0  0  0  0  0  0
    8.7884   -3.1507   20.3965 N   0  0  0  0  0  0  0  0  0  0  0  0
   10.8220   -3.3612   20.7743 C   0  0  0  0  0  0  0  0  0  0  0  0
   11.5981   -3.5050   22.0451 C   0  0  0  0  0  0  0  0  0  0  0  0
   12.9965   -3.8583   22.3622 C   0  0  0  0  0  0  0  0  0  0  0  0
   13.9196   -4.1955   21.5554 N   0  0  0  0  0  0  0  0  0  0  0  0
   13.5741   -4.0855   20.2684 C   0  0  0  0  0  0  0  0  0  0  0  0
   14.4049   -4.4141   19.2952 N   0  0  0  0  0  0  0  0  0  0  0  0
   13.8958   -3.9150   18.1642 C   0  0  0  0  0  0  0  0  0  0  0  0
   12.6891   -3.3450   18.4219 C   0  0  0  0  0  0  0  0  0  0  0  0
   12.3144   -3.5779   19.8086 N   0  0  0  0  0  0  0  0  0  0  0  0
    2.9543   -2.0452   26.7336 C   0  0  0  0  0  0  0  0  0  0  0  0
    2.0755   -1.4161   27.6306 C   0  0  0  0  0  0  0  0  0  0  0  0
    1.5643    0.4208   28.6320 H   0  0  0  0  0  0  0  0  0  0  0  0
    3.4996    1.6505   27.6703 H   0  0  0  0  0  0  0  0  0  0  0  0
    5.0762    0.4946   26.1820 H   0  0  0  0  0  0  0  0  0  0  0  0
    5.9263   -2.0593   25.5194 H   0  0  0  0  0  0  0  0  0  0  0  0
    4.4892   -3.0835   25.0465 H   0  0  0  0  0  0  0  0  0  0  0  0
    3.9454   -2.0307   23.3982 H   0  0  0  0  0  0  0  0  0  0  0  0
    4.9042   -0.5574   23.7532 H   0  0  0  0  0  0  0  0  0  0  0  0
    5.3742   -2.7778   21.8343 H   0  0  0  0  0  0  0  0  0  0  0  0
    4.9809   -0.9238   21.6777 H   0  0  0  0  0  0  0  0  0  0  0  0
    6.5026   -2.2526   20.6066 H   0  0  0  0  0  0  0  0  0  0  0  0
    7.9387   -0.6095   18.7414 H   0  0  0  0  0  0  0  0  0  0  0  0
    6.7645    0.2325   19.5004 H   0  0  0  0  0  0  0  0  0  0  0  0
    5.8057   -1.3151   17.4981 H   0  0  0  0  0  0  0  0  0  0  0  0
    4.5297   -1.7617   18.2166 H   0  0  0  0  0  0  0  0  0  0  0  0
    5.0856   -3.3582   20.3647 H   0  0  0  0  0  0  0  0  0  0  0  0
    5.1724   -4.5179   19.1637 H   0  0  0  0  0  0  0  0  0  0  0  0
    7.8310   -4.8118   20.9906 H   0  0  0  0  0  0  0  0  0  0  0  0
    7.2497   -5.1391   19.3722 H   0  0  0  0  0  0  0  0  0  0  0  0
   11.2804   -3.2154   23.0396 H   0  0  0  0  0  0  0  0  0  0  0  0
   13.2318   -3.8702   23.4415 H   0  0  0  0  0  0  0  0  0  0  0  0
   14.4226   -3.9637   17.2209 H   0  0  0  0  0  0  0  0  0  0  0  0
   12.0596   -2.8345   17.7178 H   0  0  0  0  0  0  0  0  0  0  0  0
    2.8053   -3.0986   26.5117 H   0  0  0  0  0  0  0  0  0  0  0  0
    1.2616   -1.9865   28.0674 H   0  0  0  0  0  0  0  0  0  0  0  0
  1  2  2  0
  2  3  1  0
  3  4  2  0
  4  5  1  0
  5  6  1  0
  6  7  1  0
  7  8  1  0
  8  9  1  0
  9 10  1  0
 10 11  1  0
 11 12  1  0
 12 13  1  0
 13 14  1  0
 14 15  2  0
 15 16  1  0
 16 17  2  0
 17 18  1  0
 18 19  2  0
 19 20  1  0
 20 21  2  0
 21 22  1  0
  4 23  1  0
 23 24  2  0
 24  1  1  0
 13  8  1  0
 22 14  1  0
 22 18  1  0
  1 25  1  0
  2 26  1  0
  3 27  1  0
  5 28  1  0
  5 29  1  0
  6 30  1  0
  6 31  1  0
  7 32  1  0
  7 33  1  0
  8 34  1  0
  9 35  1  0
  9 36  1  0
 10 37  1  0
 10 38  1  0
 11 39  1  0
 11 40  1  0
 12 41  1  0
 12 42  1  0
 15 43  1  0
 16 44  1  0
 20 45  1  0
 21 46  1  0
 23 47  1  0
 24 48  1  0
M  END
>  <Energy>  (878) 
1093.8926658567593

>  <compound_id>  (878) 
69732

>  <target_id>  (878) 
1

>  <reference_id>  (878) 
70

>  <inspiration_ids>  (878) 
[70, 106]

>  <energy_score>  (878) 
971.4806742079116

>  <distance_score>  (878) 
6.0472123038414916

>  <path>  (878) 
/opt/xchem-fragalysis-2/maxwin/BulkDock/SCRATCH/511015/C69732-P70/C69732-P70.minimised.mol

>  <scratch_subdir>  (878) 
/opt/xchem-fragalysis-2/maxwin/BulkDock/SCRATCH/511015/C69732-P70

>  <fragmenstein_runtime>  (878) 
11.22295093536377

>  <fragmenstein_outcome>  (878) 
too moved

>  <fragmenstein_mode>  (878) 
expansion

>  <fragmenstein_error>  (878) 


$$$$
C69732-P106
     RDKit          3D

 48 51  0  0  0  0  0  0  0  0999 V2000
    0.4660    3.7564   25.7343 C   0  0  0  0  0  0  0  0  0  0  0  0
    0.3617    4.2350   24.4349 C   0  0  0  0  0  0  0  0  0  0  0  0
    1.1903    3.7201   23.4281 C   0  0  0  0  0  0  0  0  0  0  0  0
    2.1422    2.6959   23.6745 C   0  0  0  0  0  0  0  0  0  0  0  0
    2.9580    2.1969   22.4011 C   0  0  0  0  0  0  0  0  0  0  0  0
    4.1818    0.8046   21.7554 C   0  0  0  0  0  0  0  0  0  0  0  0
    5.5926   -0.4724   21.6301 C   0  0  0  0  0  0  0  0  0  0  0  0
    7.4138   -1.4527   20.9487 C   0  0  0  0  0  0  0  0  0  0  0  0
    5.8255   -2.4662   20.9168 C   0  0  0  0  0  0  0  0  0  0  0  0
    7.0715   -1.3049   20.1364 C   0  0  0  0  0  0  0  0  0  0  0  0
    6.7092   -3.1858   21.0042 C   0  0  0  0  0  0  0  0  0  0  0  0
    7.9997   -4.2036   20.8681 C   0  0  0  0  0  0  0  0  0  0  0  0
    8.8432   -3.1447   20.6722 N   0  0  0  0  0  0  0  0  0  0  0  0
   10.8959   -3.3955   20.9590 C   0  0  0  0  0  0  0  0  0  0  0  0
   11.7049   -3.6471   22.1964 C   0  0  0  0  0  0  0  0  0  0  0  0
   13.1490   -3.8460   22.4600 C   0  0  0  0  0  0  0  0  0  0  0  0
   14.1255   -3.6772   21.6638 N   0  0  0  0  0  0  0  0  0  0  0  0
   13.7453   -3.3523   20.4237 C   0  0  0  0  0  0  0  0  0  0  0  0
   14.6105   -2.9975   19.4919 N   0  0  0  0  0  0  0  0  0  0  0  0
   13.9998   -3.1802   18.3152 C   0  0  0  0  0  0  0  0  0  0  0  0
   12.7110   -3.5658   18.5272 C   0  0  0  0  0  0  0  0  0  0  0  0
   12.3869   -3.4335   19.9495 N   0  0  0  0  0  0  0  0  0  0  0  0
    2.2217    2.2517   24.9999 C   0  0  0  0  0  0  0  0  0  0  0  0
    1.3998    2.7682   26.0176 C   0  0  0  0  0  0  0  0  0  0  0  0
   -0.1710    4.1559   26.5190 H   0  0  0  0  0  0  0  0  0  0  0  0
   -0.3576    5.0153   24.1978 H   0  0  0  0  0  0  0  0  0  0  0  0
    1.0833    4.1177   22.4185 H   0  0  0  0  0  0  0  0  0  0  0  0
    2.2016    2.1326   21.5987 H   0  0  0  0  0  0  0  0  0  0  0  0
    3.3354    3.2152   22.1886 H   0  0  0  0  0  0  0  0  0  0  0  0
    4.4914    0.7002   22.7337 H   0  0  0  0  0  0  0  0  0  0  0  0
    3.2962    0.4528   21.3932 H   0  0  0  0  0  0  0  0  0  0  0  0
    5.9095    0.5689   21.7438 H   0  0  0  0  0  0  0  0  0  0  0  0
    5.0162   -1.0328   22.4195 H   0  0  0  0  0  0  0  0  0  0  0  0
    6.4248   -1.2666   21.8905 H   0  0  0  0  0  0  0  0  0  0  0  0
    5.3750   -2.4951   21.9705 H   0  0  0  0  0  0  0  0  0  0  0  0
    5.1714   -2.8020   20.0624 H   0  0  0  0  0  0  0  0  0  0  0  0
    6.8872   -1.1931   19.0236 H   0  0  0  0  0  0  0  0  0  0  0  0
    6.8186   -0.1270   20.0779 H   0  0  0  0  0  0  0  0  0  0  0  0
    6.0642   -3.9928   20.0120 H   0  0  0  0  0  0  0  0  0  0  0  0
    6.7410   -3.5427   22.2702 H   0  0  0  0  0  0  0  0  0  0  0  0
    7.9244   -4.7908   21.8016 H   0  0  0  0  0  0  0  0  0  0  0  0
    7.7416   -4.7779   20.0218 H   0  0  0  0  0  0  0  0  0  0  0  0
   11.3973   -3.5528   23.2278 H   0  0  0  0  0  0  0  0  0  0  0  0
   13.3858   -4.1378   23.4989 H   0  0  0  0  0  0  0  0  0  0  0  0
   14.5221   -3.0832   17.3731 H   0  0  0  0  0  0  0  0  0  0  0  0
   12.0080   -3.8986   17.7813 H   0  0  0  0  0  0  0  0  0  0  0  0
    2.8700    1.4227   25.2705 H   0  0  0  0  0  0  0  0  0  0  0  0
    1.4880    2.3766   27.0281 H   0  0  0  0  0  0  0  0  0  0  0  0
  1  2  2  0
  2  3  1  0
  3  4  2  0
  4  5  1  0
  5  6  1  0
  6  7  1  0
  7  8  1  0
  8  9  1  0
  9 10  1  0
 10 11  1  0
 11 12  1  0
 12 13  1  0
 13 14  1  0
 14 15  2  0
 15 16  1  0
 16 17  2  0
 17 18  1  0
 18 19  2  0
 19 20  1  0
 20 21  2  0
 21 22  1  0
  4 23  1  0
 23 24  2  0
 24  1  1  0
 13  8  1  0
 22 14  1  0
 22 18  1  0
  1 25  1  0
  2 26  1  0
  3 27  1  0
  5 28  1  0
  5 29  1  0
  6 30  1  0
  6 31  1  0
  7 32  1  0
  7 33  1  0
  8 34  1  0
  9 35  1  0
  9 36  1  0
 10 37  1  0
 10 38  1  0
 11 39  1  0
 11 40  1  0
 12 41  1  0
 12 42  1  0
 15 43  1  0
 16 44  1  0
 20 45  1  0
 21 46  1  0
 23 47  1  0
 24 48  1  0
M  END
>  <Energy>  (879) 
2066.8286097889213

>  <compound_id>  (879) 
69732

>  <target_id>  (879) 
1

>  <reference_id>  (879) 
106

>  <inspiration_ids>  (879) 
[70, 106]

>  <energy_score>  (879) 
1944.416618140101

>  <distance_score>  (879) 
5.366639262941296

>  <path>  (879) 
/opt/xchem-fragalysis-2/maxwin/BulkDock/SCRATCH/511015/C69732-P106/C69732-P106.minimised.mol

>  <scratch_subdir>  (879) 
/opt/xchem-fragalysis-2/maxwin/BulkDock/SCRATCH/511015/C69732-P106

>  <fragmenstein_runtime>  (879) 
10.085164546966553

>  <fragmenstein_outcome>  (879) 
too moved

>  <fragmenstein_mode>  (879) 
expansion

>  <fragmenstein_error>  (879) 


$$$$
C69732-P70
     RDKit          3D

 48 51  0  0  0  0  0  0  0  0999 V2000
    2.2411   -0.0724   27.9427 C   0  0  0  0  0  0  0  0  0  0  0  0
    3.3158    0.6164   27.3934 C   0  0  0  0  0  0  0  0  0  0  0  0
    4.1933   -0.0327   26.5086 C   0  0  0  0  0  0  0  0  0  0  0  0
    3.9956   -1.3533   26.0959 C   0  0  0  0  0  0  0  0  0  0  0  0
    4.9290   -2.0867   25.0808 C   0  0  0  0  0  0  0  0  0  0  0  0
    4.9398   -1.6232   23.6097 C   0  0  0  0  0  0  0  0  0  0  0  0
    5.5844   -1.7676   21.9357 C   0  0  0  0  0  0  0  0  0  0  0  0
    7.3172   -1.5876   20.7817 C   0  0  0  0  0  0  0  0  0  0  0  0
    7.0419   -0.7658   19.2970 C   0  0  0  0  0  0  0  0  0  0  0  0
    5.6281   -1.9206   18.4187 C   0  0  0  0  0  0  0  0  0  0  0  0
    5.7087   -3.6297   19.5696 C   0  0  0  0  0  0  0  0  0  0  0  0
    7.5670   -4.3598   20.0417 C   0  0  0  0  0  0  0  0  0  0  0  0
    8.7884   -3.1507   20.3965 N   0  0  0  0  0  0  0  0  0  0  0  0
   10.8220   -3.3612   20.7743 C   0  0  0  0  0  0  0  0  0  0  0  0
   11.5981   -3.5050   22.0451 C   0  0  0  0  0  0  0  0  0  0  0  0
   12.9965   -3.8583   22.3622 C   0  0  0  0  0  0  0  0  0  0  0  0
   13.9196   -4.1955   21.5554 N   0  0  0  0  0  0  0  0  0  0  0  0
   13.5741   -4.0855   20.2684 C   0  0  0  0  0  0  0  0  0  0  0  0
   14.4049   -4.4141   19.2952 N   0  0  0  0  0  0  0  0  0  0  0  0
   13.8958   -3.9150   18.1642 C   0  0  0  0  0  0  0  0  0  0  0  0
   12.6891   -3.3450   18.4219 C   0  0  0  0  0  0  0  0  0  0  0  0
   12.3144   -3.5779   19.8086 N   0  0  0  0  0  0  0  0  0  0  0  0
    2.9543   -2.0452   26.7336 C   0  0  0  0  0  0  0  0  0  0  0  0
    2.0755   -1.4161   27.6306 C   0  0  0  0  0  0  0  0  0  0  0  0
    1.5643    0.4208   28.6320 H   0  0  0  0  0  0  0  0  0  0  0  0
    3.4996    1.6505   27.6703 H   0  0  0  0  0  0  0  0  0  0  0  0
    5.0762    0.4946   26.1820 H   0  0  0  0  0  0  0  0  0  0  0  0
    5.9263   -2.0593   25.5194 H   0  0  0  0  0  0  0  0  0  0  0  0
    4.4892   -3.0835   25.0465 H   0  0  0  0  0  0  0  0  0  0  0  0
    3.9454   -2.0307   23.3982 H   0  0  0  0  0  0  0  0  0  0  0  0
    4.9042   -0.5574   23.7532 H   0  0  0  0  0  0  0  0  0  0  0  0
    5.3742   -2.7778   21.8343 H   0  0  0  0  0  0  0  0  0  0  0  0
    4.9809   -0.9238   21.6777 H   0  0  0  0  0  0  0  0  0  0  0  0
    6.5026   -2.2526   20.6066 H   0  0  0  0  0  0  0  0  0  0  0  0
    7.9387   -0.6095   18.7414 H   0  0  0  0  0  0  0  0  0  0  0  0
    6.7645    0.2325   19.5004 H   0  0  0  0  0  0  0  0  0  0  0  0
    5.8057   -1.3151   17.4981 H   0  0  0  0  0  0  0  0  0  0  0  0
    4.5297   -1.7617   18.2166 H   0  0  0  0  0  0  0  0  0  0  0  0
    5.0856   -3.3582   20.3647 H   0  0  0  0  0  0  0  0  0  0  0  0
    5.1724   -4.5179   19.1637 H   0  0  0  0  0  0  0  0  0  0  0  0
    7.8310   -4.8118   20.9906 H   0  0  0  0  0  0  0  0  0  0  0  0
    7.2497   -5.1391   19.3722 H   0  0  0  0  0  0  0  0  0  0  0  0
   11.2804   -3.2154   23.0396 H   0  0  0  0  0  0  0  0  0  0  0  0
   13.2318   -3.8702   23.4415 H   0  0  0  0  0  0  0  0  0  0  0  0
   14.4226   -3.9637   17.2209 H   0  0  0  0  0  0  0  0  0  0  0  0
   12.0596   -2.8345   17.7178 H   0  0  0  0  0  0  0  0  0  0  0  0
    2.8053   -3.0986   26.5117 H   0  0  0  0  0  0  0  0  0  0  0  0
    1.2616   -1.9865   28.0674 H   0  0  0  0  0  0  0  0  0  0  0  0
  1  2  2  0
  2  3  1  0
  3  4  2  0
  4  5  1  0
  5  6  1  0
  6  7  1  0
  7  8  1  0
  8  9  1  0
  9 10  1  0
 10 11  1  0
 11 12  1  0
 12 13  1  0
 13 14  1  0
 14 15  2  0
 15 16  1  0
 16 17  2  0
 17 18  1  0
 18 19  2  0
 19 20  1  0
 20 21  2  0
 21 22  1  0
  4 23  1  0
 23 24  2  0
 24  1  1  0
 13  8  1  0
 22 14  1  0
 22 18  1  0
  1 25  1  0
  2 26  1  0
  3 27  1  0
  5 28  1  0
  5 29  1  0
  6 30  1  0
  6 31  1  0
  7 32  1  0
  7 33  1  0
  8 34  1  0
  9 35  1  0
  9 36  1  0
 10 37  1  0
 10 38  1  0
 11 39  1  0
 11 40  1  0
 12 41  1  0
 12 42  1  0
 15 43  1  0
 16 44  1  0
 20 45  1  0
 21 46  1  0
 23 47  1  0
 24 48  1  0
M  END
>  <Energy>  (880) 
1093.8926658567593

>  <compound_id>  (880) 
69732

>  <target_id>  (880) 
1

>  <reference_id>  (880) 
70

>  <inspiration_ids>  (880) 
[70, 106]

>  <energy_score>  (880) 
971.4806742079116

>  <distance_score>  (880) 
6.0472123038414916

>  <path>  (880) 
/opt/xchem-fragalysis-2/maxwin/BulkDock/SCRATCH/511015/C69732-P70/C69732-P70.minimised.mol

>  <scratch_subdir>  (880) 
/opt/xchem-fragalysis-2/maxwin/BulkDock/SCRATCH/511015/C69732-P70

>  <fragmenstein_runtime>  (880) 
10.684009552001953

>  <fragmenstein_outcome>  (880) 
too moved

>  <fragmenstein_mode>  (880) 
expansion

>  <fragmenstein_error>  (880) 


$$$$
C69732-P106
     RDKit          3D

 48 51  0  0  0  0  0  0  0  0999 V2000
    0.4660    3.7564   25.7343 C   0  0  0  0  0  0  0  0  0  0  0  0
    0.3617    4.2350   24.4349 C   0  0  0  0  0  0  0  0  0  0  0  0
    1.1903    3.7201   23.4281 C   0  0  0  0  0  0  0  0  0  0  0  0
    2.1422    2.6959   23.6745 C   0  0  0  0  0  0  0  0  0  0  0  0
    2.9580    2.1969   22.4011 C   0  0  0  0  0  0  0  0  0  0  0  0
    4.1818    0.8046   21.7554 C   0  0  0  0  0  0  0  0  0  0  0  0
    5.5926   -0.4724   21.6301 C   0  0  0  0  0  0  0  0  0  0  0  0
    7.4138   -1.4527   20.9487 C   0  0  0  0  0  0  0  0  0  0  0  0
    5.8255   -2.4662   20.9168 C   0  0  0  0  0  0  0  0  0  0  0  0
    7.0715   -1.3049   20.1364 C   0  0  0  0  0  0  0  0  0  0  0  0
    6.7092   -3.1858   21.0042 C   0  0  0  0  0  0  0  0  0  0  0  0
    7.9997   -4.2036   20.8681 C   0  0  0  0  0  0  0  0  0  0  0  0
    8.8432   -3.1447   20.6722 N   0  0  0  0  0  0  0  0  0  0  0  0
   10.8959   -3.3955   20.9590 C   0  0  0  0  0  0  0  0  0  0  0  0
   11.7049   -3.6471   22.1964 C   0  0  0  0  0  0  0  0  0  0  0  0
   13.1490   -3.8460   22.4600 C   0  0  0  0  0  0  0  0  0  0  0  0
   14.1255   -3.6772   21.6638 N   0  0  0  0  0  0  0  0  0  0  0  0
   13.7453   -3.3523   20.4237 C   0  0  0  0  0  0  0  0  0  0  0  0
   14.6105   -2.9975   19.4919 N   0  0  0  0  0  0  0  0  0  0  0  0
   13.9998   -3.1802   18.3152 C   0  0  0  0  0  0  0  0  0  0  0  0
   12.7110   -3.5658   18.5272 C   0  0  0  0  0  0  0  0  0  0  0  0
   12.3869   -3.4335   19.9495 N   0  0  0  0  0  0  0  0  0  0  0  0
    2.2217    2.2517   24.9999 C   0  0  0  0  0  0  0  0  0  0  0  0
    1.3998    2.7682   26.0176 C   0  0  0  0  0  0  0  0  0  0  0  0
   -0.1710    4.1559   26.5190 H   0  0  0  0  0  0  0  0  0  0  0  0
   -0.3576    5.0153   24.1978 H   0  0  0  0  0  0  0  0  0  0  0  0
    1.0833    4.1177   22.4185 H   0  0  0  0  0  0  0  0  0  0  0  0
    2.2016    2.1326   21.5987 H   0  0  0  0  0  0  0  0  0  0  0  0
    3.3354    3.2152   22.1886 H   0  0  0  0  0  0  0  0  0  0  0  0
    4.4914    0.7002   22.7337 H   0  0  0  0  0  0  0  0  0  0  0  0
    3.2962    0.4528   21.3932 H   0  0  0  0  0  0  0  0  0  0  0  0
    5.9095    0.5689   21.7438 H   0  0  0  0  0  0  0  0  0  0  0  0
    5.0162   -1.0328   22.4195 H   0  0  0  0  0  0  0  0  0  0  0  0
    6.4248   -1.2666   21.8905 H   0  0  0  0  0  0  0  0  0  0  0  0
    5.3750   -2.4951   21.9705 H   0  0  0  0  0  0  0  0  0  0  0  0
    5.1714   -2.8020   20.0624 H   0  0  0  0  0  0  0  0  0  0  0  0
    6.8872   -1.1931   19.0236 H   0  0  0  0  0  0  0  0  0  0  0  0
    6.8186   -0.1270   20.0779 H   0  0  0  0  0  0  0  0  0  0  0  0
    6.0642   -3.9928   20.0120 H   0  0  0  0  0  0  0  0  0  0  0  0
    6.7410   -3.5427   22.2702 H   0  0  0  0  0  0  0  0  0  0  0  0
    7.9244   -4.7908   21.8016 H   0  0  0  0  0  0  0  0  0  0  0  0
    7.7416   -4.7779   20.0218 H   0  0  0  0  0  0  0  0  0  0  0  0
   11.3973   -3.5528   23.2278 H   0  0  0  0  0  0  0  0  0  0  0  0
   13.3858   -4.1378   23.4989 H   0  0  0  0  0  0  0  0  0  0  0  0
   14.5221   -3.0832   17.3731 H   0  0  0  0  0  0  0  0  0  0  0  0
   12.0080   -3.8986   17.7813 H   0  0  0  0  0  0  0  0  0  0  0  0
    2.8700    1.4227   25.2705 H   0  0  0  0  0  0  0  0  0  0  0  0
    1.4880    2.3766   27.0281 H   0  0  0  0  0  0  0  0  0  0  0  0
  1  2  2  0
  2  3  1  0
  3  4  2  0
  4  5  1  0
  5  6  1  0
  6  7  1  0
  7  8  1  0
  8  9  1  0
  9 10  1  0
 10 11  1  0
 11 12  1  0
 12 13  1  0
 13 14  1  0
 14 15  2  0
 15 16  1  0
 16 17  2  0
 17 18  1  0
 18 19  2  0
 19 20  1  0
 20 21  2  0
 21 22  1  0
  4 23  1  0
 23 24  2  0
 24  1  1  0
 13  8  1  0
 22 14  1  0
 22 18  1  0
  1 25  1  0
  2 26  1  0
  3 27  1  0
  5 28  1  0
  5 29  1  0
  6 30  1  0
  6 31  1  0
  7 32  1  0
  7 33  1  0
  8 34  1  0
  9 35  1  0
  9 36  1  0
 10 37  1  0
 10 38  1  0
 11 39  1  0
 11 40  1  0
 12 41  1  0
 12 42  1  0
 15 43  1  0
 16 44  1  0
 20 45  1  0
 21 46  1  0
 23 47  1  0
 24 48  1  0
M  END
>  <Energy>  (881) 
2066.8286097889213

>  <compound_id>  (881) 
69732

>  <target_id>  (881) 
1

>  <reference_id>  (881) 
106

>  <inspiration_ids>  (881) 
[70, 106]

>  <energy_score>  (881) 
1944.416618140101

>  <distance_score>  (881) 
5.366639262941296

>  <path>  (881) 
/opt/xchem-fragalysis-2/maxwin/BulkDock/SCRATCH/511015/C69732-P106/C69732-P106.minimised.mol

>  <scratch_subdir>  (881) 
/opt/xchem-fragalysis-2/maxwin/BulkDock/SCRATCH/511015/C69732-P106

>  <fragmenstein_runtime>  (881) 
10.805173397064209

>  <fragmenstein_outcome>  (881) 
too moved

>  <fragmenstein_mode>  (881) 
expansion

>  <fragmenstein_error>  (881) 


$$$$
C8673-P70
     RDKit          3D

 44 46  0  0  0  0  0  0  0  0999 V2000
    0.8890   -4.1191   14.1122 C   0  0  0  0  0  0  0  0  0  0  0  0
    0.1036   -4.1150   15.4150 C   0  0  0  0  0  0  0  0  0  0  0  0
    0.8418   -3.4413   16.5724 C   0  0  0  0  0  0  0  0  0  0  0  0
    0.9591   -2.0017   16.4283 N   0  0  0  0  0  0  0  0  0  0  0  0
   -0.0145   -1.1164   16.8133 C   0  0  0  0  0  0  0  0  0  0  0  0
    0.4986    0.1253   16.5574 C   0  0  0  0  0  0  0  0  0  0  0  0
    1.7505    0.0152   16.0044 N   0  0  0  0  0  0  0  0  0  0  0  0
    2.0372   -1.2781   15.9421 C   0  0  0  0  0  0  0  0  0  0  0  0
    3.4036   -1.8956   15.6627 C   0  0  0  0  0  0  0  0  0  0  0  0
    4.3810   -1.2890   14.5580 C   0  0  0  0  0  0  0  0  0  0  0  0
    5.9299   -1.4570   14.9566 C   0  0  0  0  0  0  0  0  0  0  0  0
    7.1464   -0.9948   14.2682 N   0  0  0  0  0  0  0  0  0  0  0  0
    6.9178   -0.8383   12.8235 C   0  0  0  0  0  0  0  0  0  0  0  0
    8.4951   -0.9734   14.8296 C   0  0  0  0  0  0  0  0  0  0  0  0
    9.2407   -2.0841   14.7788 C   0  0  0  0  0  0  0  0  0  0  0  0
   10.7051   -2.0462   14.9972 C   0  0  0  0  0  0  0  0  0  0  0  0
   11.3942   -0.9982   15.2884 N   0  0  0  0  0  0  0  0  0  0  0  0
   10.6632    0.1412   15.4005 C   0  0  0  0  0  0  0  0  0  0  0  0
   11.1323    1.3347   15.6972 N   0  0  0  0  0  0  0  0  0  0  0  0
   10.0444    2.0940   15.9748 C   0  0  0  0  0  0  0  0  0  0  0  0
    8.8977    1.3566   15.8387 C   0  0  0  0  0  0  0  0  0  0  0  0
    9.2488    0.1606   15.2678 N   0  0  0  0  0  0  0  0  0  0  0  0
    0.3331   -4.6616   13.3409 H   0  0  0  0  0  0  0  0  0  0  0  0
    1.8570   -4.6138   14.2389 H   0  0  0  0  0  0  0  0  0  0  0  0
    1.0622   -3.1035   13.7445 H   0  0  0  0  0  0  0  0  0  0  0  0
   -0.8656   -3.6298   15.2491 H   0  0  0  0  0  0  0  0  0  0  0  0
   -0.1046   -5.1546   15.6949 H   0  0  0  0  0  0  0  0  0  0  0  0
    0.2868   -3.6228   17.4996 H   0  0  0  0  0  0  0  0  0  0  0  0
    1.8371   -3.8702   16.7197 H   0  0  0  0  0  0  0  0  0  0  0  0
   -0.9583   -1.4424   17.2249 H   0  0  0  0  0  0  0  0  0  0  0  0
    0.0369    1.0891   16.7282 H   0  0  0  0  0  0  0  0  0  0  0  0
    3.8883   -1.8716   16.6413 H   0  0  0  0  0  0  0  0  0  0  0  0
    3.2874   -2.9535   15.4086 H   0  0  0  0  0  0  0  0  0  0  0  0
    4.2067   -1.8400   13.6262 H   0  0  0  0  0  0  0  0  0  0  0  0
    4.1024   -0.2681   14.2990 H   0  0  0  0  0  0  0  0  0  0  0  0
    6.0768   -2.5324   14.9093 H   0  0  0  0  0  0  0  0  0  0  0  0
    6.0268   -0.9754   15.9296 H   0  0  0  0  0  0  0  0  0  0  0  0
    7.5291   -0.0630   12.3858 H   0  0  0  0  0  0  0  0  0  0  0  0
    5.8775   -0.6224   12.5585 H   0  0  0  0  0  0  0  0  0  0  0  0
    7.1665   -1.7252   12.2940 H   0  0  0  0  0  0  0  0  0  0  0  0
    8.7921   -3.0143   14.5299 H   0  0  0  0  0  0  0  0  0  0  0  0
   11.2188   -3.0148   14.8847 H   0  0  0  0  0  0  0  0  0  0  0  0
   10.1444    3.1097   16.3357 H   0  0  0  0  0  0  0  0  0  0  0  0
    7.8955    1.5957   16.1238 H   0  0  0  0  0  0  0  0  0  0  0  0
  1  2  1  0
  2  3  1  0
  3  4  1  0
  4  5  1  0
  5  6  2  0
  6  7  1  0
  7  8  2  0
  8  9  1  0
  9 10  1  0
 10 11  1  0
 11 12  1  0
 12 13  1  0
 12 14  1  0
 14 15  2  0
 15 16  1  0
 16 17  2  0
 17 18  1  0
 18 19  2  0
 19 20  1  0
 20 21  2  0
 21 22  1  0
  8  4  1  0
 22 14  1  0
 22 18  1  0
  1 23  1  0
  1 24  1  0
  1 25  1  0
  2 26  1  0
  2 27  1  0
  3 28  1  0
  3 29  1  0
  5 30  1  0
  6 31  1  0
  9 32  1  0
  9 33  1  0
 10 34  1  0
 10 35  1  0
 11 36  1  0
 11 37  1  0
 13 38  1  0
 13 39  1  0
 13 40  1  0
 15 41  1  0
 16 42  1  0
 20 43  1  0
 21 44  1  0
M  END
>  <Energy>  (882) 
97.540902910472781

>  <compound_id>  (882) 
8673

>  <target_id>  (882) 
1

>  <reference_id>  (882) 
70

>  <inspiration_ids>  (882) 
[70, 106]

>  <energy_score>  (882) 
9.983979981040875

>  <distance_score>  (882) 
8.689313311369848

>  <path>  (882) 
/opt/xchem-fragalysis-2/maxwin/BulkDock/SCRATCH/511015/C8673-P70/C8673-P70.minimised.mol

>  <scratch_subdir>  (882) 
/opt/xchem-fragalysis-2/maxwin/BulkDock/SCRATCH/511015/C8673-P70

>  <fragmenstein_runtime>  (882) 
11.060611963272095

>  <fragmenstein_outcome>  (882) 
too moved

>  <fragmenstein_mode>  (882) 
expansion

>  <fragmenstein_error>  (882) 


$$$$
C8673-P106
     RDKit          3D

 44 46  0  0  0  0  0  0  0  0999 V2000
    3.6639    4.8170   25.0089 C   0  0  0  0  0  0  0  0  0  0  0  0
    3.3095    5.2533   23.5976 C   0  0  0  0  0  0  0  0  0  0  0  0
    3.6843    4.2357   22.4994 C   0  0  0  0  0  0  0  0  0  0  0  0
    2.9933    2.8459   22.6262 N   0  0  0  0  0  0  0  0  0  0  0  0
    1.6319    3.0762   22.4821 C   0  0  0  0  0  0  0  0  0  0  0  0
    1.5625    2.7953   21.1602 C   0  0  0  0  0  0  0  0  0  0  0  0
    2.4395    1.7390   20.8486 N   0  0  0  0  0  0  0  0  0  0  0  0
    3.3842    1.4098   21.7883 C   0  0  0  0  0  0  0  0  0  0  0  0
    5.1093    0.2954   21.5034 C   0  0  0  0  0  0  0  0  0  0  0  0
    6.8309   -0.1181   20.2884 C   0  0  0  0  0  0  0  0  0  0  0  0
    7.4260   -0.0789   18.5261 C   0  0  0  0  0  0  0  0  0  0  0  0
    8.6305   -0.2326   17.2827 N   0  0  0  0  0  0  0  0  0  0  0  0
    7.9598   -0.7991   15.9785 C   0  0  0  0  0  0  0  0  0  0  0  0
    9.4549    0.8406   16.7414 C   0  0  0  0  0  0  0  0  0  0  0  0
    9.1478    2.1494   16.7360 C   0  0  0  0  0  0  0  0  0  0  0  0
   10.1190    3.0681   16.0843 C   0  0  0  0  0  0  0  0  0  0  0  0
   11.1866    2.7429   15.4305 N   0  0  0  0  0  0  0  0  0  0  0  0
   11.4483    1.4099   15.3528 C   0  0  0  0  0  0  0  0  0  0  0  0
   12.4385    0.8134   14.7185 N   0  0  0  0  0  0  0  0  0  0  0  0
   12.2655   -0.5259   14.9167 C   0  0  0  0  0  0  0  0  0  0  0  0
   11.1665   -0.7631   15.7008 C   0  0  0  0  0  0  0  0  0  0  0  0
   10.6250    0.4734   15.9846 N   0  0  0  0  0  0  0  0  0  0  0  0
    4.7351    4.6138   25.1009 H   0  0  0  0  0  0  0  0  0  0  0  0
    3.1070    3.9225   25.3027 H   0  0  0  0  0  0  0  0  0  0  0  0
    3.4139    5.6112   25.7199 H   0  0  0  0  0  0  0  0  0  0  0  0
    2.2455    5.5073   23.5559 H   0  0  0  0  0  0  0  0  0  0  0  0
    3.8436    6.1873   23.3822 H   0  0  0  0  0  0  0  0  0  0  0  0
    3.3703    4.6349   21.5240 H   0  0  0  0  0  0  0  0  0  0  0  0
    4.7763    4.1683   22.4661 H   0  0  0  0  0  0  0  0  0  0  0  0
    1.0673    3.7430   23.1148 H   0  0  0  0  0  0  0  0  0  0  0  0
    0.8504    3.1574   20.4311 H   0  0  0  0  0  0  0  0  0  0  0  0
    5.6426    0.8248   22.1730 H   0  0  0  0  0  0  0  0  0  0  0  0
    4.9500   -0.6508   22.0337 H   0  0  0  0  0  0  0  0  0  0  0  0
    7.5231    0.6975   20.6016 H   0  0  0  0  0  0  0  0  0  0  0  0
    6.2087    0.1605   19.4493 H   0  0  0  0  0  0  0  0  0  0  0  0
    6.5971   -0.6171   18.0348 H   0  0  0  0  0  0  0  0  0  0  0  0
    7.5373    1.0247   18.5314 H   0  0  0  0  0  0  0  0  0  0  0  0
    8.2328   -0.2138   15.0964 H   0  0  0  0  0  0  0  0  0  0  0  0
    8.3392   -1.7916   15.7538 H   0  0  0  0  0  0  0  0  0  0  0  0
    6.8730   -0.8340   16.0456 H   0  0  0  0  0  0  0  0  0  0  0  0
    8.2501    2.5733   17.1574 H   0  0  0  0  0  0  0  0  0  0  0  0
    9.8710    4.1384   16.1790 H   0  0  0  0  0  0  0  0  0  0  0  0
   12.9386   -1.2515   14.4791 H   0  0  0  0  0  0  0  0  0  0  0  0
   10.7274   -1.6847   16.0379 H   0  0  0  0  0  0  0  0  0  0  0  0
  1  2  1  0
  2  3  1  0
  3  4  1  0
  4  5  1  0
  5  6  2  0
  6  7  1  0
  7  8  2  0
  8  9  1  0
  9 10  1  0
 10 11  1  0
 11 12  1  0
 12 13  1  0
 12 14  1  0
 14 15  2  0
 15 16  1  0
 16 17  2  0
 17 18  1  0
 18 19  2  0
 19 20  1  0
 20 21  2  0
 21 22  1  0
  8  4  1  0
 22 14  1  0
 22 18  1  0
  1 23  1  0
  1 24  1  0
  1 25  1  0
  2 26  1  0
  2 27  1  0
  3 28  1  0
  3 29  1  0
  5 30  1  0
  6 31  1  0
  9 32  1  0
  9 33  1  0
 10 34  1  0
 10 35  1  0
 11 36  1  0
 11 37  1  0
 13 38  1  0
 13 39  1  0
 13 40  1  0
 15 41  1  0
 16 42  1  0
 20 43  1  0
 21 44  1  0
M  END
>  <Energy>  (883) 
568.06020860380033

>  <compound_id>  (883) 
8673

>  <target_id>  (883) 
1

>  <reference_id>  (883) 
106

>  <inspiration_ids>  (883) 
[70, 106]

>  <energy_score>  (883) 
480.503285674369

>  <distance_score>  (883) 
6.0329124029839925

>  <path>  (883) 
/opt/xchem-fragalysis-2/maxwin/BulkDock/SCRATCH/511015/C8673-P106/C8673-P106.minimised.mol

>  <scratch_subdir>  (883) 
/opt/xchem-fragalysis-2/maxwin/BulkDock/SCRATCH/511015/C8673-P106

>  <fragmenstein_runtime>  (883) 
8.454225063323975

>  <fragmenstein_outcome>  (883) 
too moved

>  <fragmenstein_mode>  (883) 
expansion

>  <fragmenstein_error>  (883) 


$$$$
C8673-P70
     RDKit          3D

 44 46  0  0  0  0  0  0  0  0999 V2000
    0.8890   -4.1191   14.1122 C   0  0  0  0  0  0  0  0  0  0  0  0
    0.1036   -4.1150   15.4150 C   0  0  0  0  0  0  0  0  0  0  0  0
    0.8418   -3.4413   16.5724 C   0  0  0  0  0  0  0  0  0  0  0  0
    0.9591   -2.0017   16.4283 N   0  0  0  0  0  0  0  0  0  0  0  0
   -0.0145   -1.1164   16.8133 C   0  0  0  0  0  0  0  0  0  0  0  0
    0.4986    0.1253   16.5574 C   0  0  0  0  0  0  0  0  0  0  0  0
    1.7505    0.0152   16.0044 N   0  0  0  0  0  0  0  0  0  0  0  0
    2.0372   -1.2781   15.9421 C   0  0  0  0  0  0  0  0  0  0  0  0
    3.4036   -1.8956   15.6627 C   0  0  0  0  0  0  0  0  0  0  0  0
    4.3810   -1.2890   14.5580 C   0  0  0  0  0  0  0  0  0  0  0  0
    5.9299   -1.4570   14.9566 C   0  0  0  0  0  0  0  0  0  0  0  0
    7.1464   -0.9948   14.2682 N   0  0  0  0  0  0  0  0  0  0  0  0
    6.9178   -0.8383   12.8235 C   0  0  0  0  0  0  0  0  0  0  0  0
    8.4951   -0.9734   14.8296 C   0  0  0  0  0  0  0  0  0  0  0  0
    9.2407   -2.0841   14.7788 C   0  0  0  0  0  0  0  0  0  0  0  0
   10.7051   -2.0462   14.9972 C   0  0  0  0  0  0  0  0  0  0  0  0
   11.3942   -0.9982   15.2884 N   0  0  0  0  0  0  0  0  0  0  0  0
   10.6632    0.1412   15.4005 C   0  0  0  0  0  0  0  0  0  0  0  0
   11.1323    1.3347   15.6972 N   0  0  0  0  0  0  0  0  0  0  0  0
   10.0444    2.0940   15.9748 C   0  0  0  0  0  0  0  0  0  0  0  0
    8.8977    1.3566   15.8387 C   0  0  0  0  0  0  0  0  0  0  0  0
    9.2488    0.1606   15.2678 N   0  0  0  0  0  0  0  0  0  0  0  0
    0.3331   -4.6616   13.3409 H   0  0  0  0  0  0  0  0  0  0  0  0
    1.8570   -4.6138   14.2389 H   0  0  0  0  0  0  0  0  0  0  0  0
    1.0622   -3.1035   13.7445 H   0  0  0  0  0  0  0  0  0  0  0  0
   -0.8656   -3.6298   15.2491 H   0  0  0  0  0  0  0  0  0  0  0  0
   -0.1046   -5.1546   15.6949 H   0  0  0  0  0  0  0  0  0  0  0  0
    0.2868   -3.6228   17.4996 H   0  0  0  0  0  0  0  0  0  0  0  0
    1.8371   -3.8702   16.7197 H   0  0  0  0  0  0  0  0  0  0  0  0
   -0.9583   -1.4424   17.2249 H   0  0  0  0  0  0  0  0  0  0  0  0
    0.0369    1.0891   16.7282 H   0  0  0  0  0  0  0  0  0  0  0  0
    3.8883   -1.8716   16.6413 H   0  0  0  0  0  0  0  0  0  0  0  0
    3.2874   -2.9535   15.4086 H   0  0  0  0  0  0  0  0  0  0  0  0
    4.2067   -1.8400   13.6262 H   0  0  0  0  0  0  0  0  0  0  0  0
    4.1024   -0.2681   14.2990 H   0  0  0  0  0  0  0  0  0  0  0  0
    6.0768   -2.5324   14.9093 H   0  0  0  0  0  0  0  0  0  0  0  0
    6.0268   -0.9754   15.9296 H   0  0  0  0  0  0  0  0  0  0  0  0
    7.5291   -0.0630   12.3858 H   0  0  0  0  0  0  0  0  0  0  0  0
    5.8775   -0.6224   12.5585 H   0  0  0  0  0  0  0  0  0  0  0  0
    7.1665   -1.7252   12.2940 H   0  0  0  0  0  0  0  0  0  0  0  0
    8.7921   -3.0143   14.5299 H   0  0  0  0  0  0  0  0  0  0  0  0
   11.2188   -3.0148   14.8847 H   0  0  0  0  0  0  0  0  0  0  0  0
   10.1444    3.1097   16.3357 H   0  0  0  0  0  0  0  0  0  0  0  0
    7.8955    1.5957   16.1238 H   0  0  0  0  0  0  0  0  0  0  0  0
  1  2  1  0
  2  3  1  0
  3  4  1  0
  4  5  1  0
  5  6  2  0
  6  7  1  0
  7  8  2  0
  8  9  1  0
  9 10  1  0
 10 11  1  0
 11 12  1  0
 12 13  1  0
 12 14  1  0
 14 15  2  0
 15 16  1  0
 16 17  2  0
 17 18  1  0
 18 19  2  0
 19 20  1  0
 20 21  2  0
 21 22  1  0
  8  4  1  0
 22 14  1  0
 22 18  1  0
  1 23  1  0
  1 24  1  0
  1 25  1  0
  2 26  1  0
  2 27  1  0
  3 28  1  0
  3 29  1  0
  5 30  1  0
  6 31  1  0
  9 32  1  0
  9 33  1  0
 10 34  1  0
 10 35  1  0
 11 36  1  0
 11 37  1  0
 13 38  1  0
 13 39  1  0
 13 40  1  0
 15 41  1  0
 16 42  1  0
 20 43  1  0
 21 44  1  0
M  END
>  <Energy>  (884) 
97.540902910472781

>  <compound_id>  (884) 
8673

>  <target_id>  (884) 
1

>  <reference_id>  (884) 
70

>  <inspiration_ids>  (884) 
[70, 106]

>  <energy_score>  (884) 
9.983979981040875

>  <distance_score>  (884) 
8.689313311369848

>  <path>  (884) 
/opt/xchem-fragalysis-2/maxwin/BulkDock/SCRATCH/511015/C8673-P70/C8673-P70.minimised.mol

>  <scratch_subdir>  (884) 
/opt/xchem-fragalysis-2/maxwin/BulkDock/SCRATCH/511015/C8673-P70

>  <fragmenstein_runtime>  (884) 
10.823443412780762

>  <fragmenstein_outcome>  (884) 
too moved

>  <fragmenstein_mode>  (884) 
expansion

>  <fragmenstein_error>  (884) 


$$$$
C8673-P106
     RDKit          3D

 44 46  0  0  0  0  0  0  0  0999 V2000
    3.6639    4.8170   25.0089 C   0  0  0  0  0  0  0  0  0  0  0  0
    3.3095    5.2533   23.5976 C   0  0  0  0  0  0  0  0  0  0  0  0
    3.6843    4.2357   22.4994 C   0  0  0  0  0  0  0  0  0  0  0  0
    2.9933    2.8459   22.6262 N   0  0  0  0  0  0  0  0  0  0  0  0
    1.6319    3.0762   22.4821 C   0  0  0  0  0  0  0  0  0  0  0  0
    1.5625    2.7953   21.1602 C   0  0  0  0  0  0  0  0  0  0  0  0
    2.4395    1.7390   20.8486 N   0  0  0  0  0  0  0  0  0  0  0  0
    3.3842    1.4098   21.7883 C   0  0  0  0  0  0  0  0  0  0  0  0
    5.1093    0.2954   21.5034 C   0  0  0  0  0  0  0  0  0  0  0  0
    6.8309   -0.1181   20.2884 C   0  0  0  0  0  0  0  0  0  0  0  0
    7.4260   -0.0789   18.5261 C   0  0  0  0  0  0  0  0  0  0  0  0
    8.6305   -0.2326   17.2827 N   0  0  0  0  0  0  0  0  0  0  0  0
    7.9598   -0.7991   15.9785 C   0  0  0  0  0  0  0  0  0  0  0  0
    9.4549    0.8406   16.7414 C   0  0  0  0  0  0  0  0  0  0  0  0
    9.1478    2.1494   16.7360 C   0  0  0  0  0  0  0  0  0  0  0  0
   10.1190    3.0681   16.0843 C   0  0  0  0  0  0  0  0  0  0  0  0
   11.1866    2.7429   15.4305 N   0  0  0  0  0  0  0  0  0  0  0  0
   11.4483    1.4099   15.3528 C   0  0  0  0  0  0  0  0  0  0  0  0
   12.4385    0.8134   14.7185 N   0  0  0  0  0  0  0  0  0  0  0  0
   12.2655   -0.5259   14.9167 C   0  0  0  0  0  0  0  0  0  0  0  0
   11.1665   -0.7631   15.7008 C   0  0  0  0  0  0  0  0  0  0  0  0
   10.6250    0.4734   15.9846 N   0  0  0  0  0  0  0  0  0  0  0  0
    4.7351    4.6138   25.1009 H   0  0  0  0  0  0  0  0  0  0  0  0
    3.1070    3.9225   25.3027 H   0  0  0  0  0  0  0  0  0  0  0  0
    3.4139    5.6112   25.7199 H   0  0  0  0  0  0  0  0  0  0  0  0
    2.2455    5.5073   23.5559 H   0  0  0  0  0  0  0  0  0  0  0  0
    3.8436    6.1873   23.3822 H   0  0  0  0  0  0  0  0  0  0  0  0
    3.3703    4.6349   21.5240 H   0  0  0  0  0  0  0  0  0  0  0  0
    4.7763    4.1683   22.4661 H   0  0  0  0  0  0  0  0  0  0  0  0
    1.0673    3.7430   23.1148 H   0  0  0  0  0  0  0  0  0  0  0  0
    0.8504    3.1574   20.4311 H   0  0  0  0  0  0  0  0  0  0  0  0
    5.6426    0.8248   22.1730 H   0  0  0  0  0  0  0  0  0  0  0  0
    4.9500   -0.6508   22.0337 H   0  0  0  0  0  0  0  0  0  0  0  0
    7.5231    0.6975   20.6016 H   0  0  0  0  0  0  0  0  0  0  0  0
    6.2087    0.1605   19.4493 H   0  0  0  0  0  0  0  0  0  0  0  0
    6.5971   -0.6171   18.0348 H   0  0  0  0  0  0  0  0  0  0  0  0
    7.5373    1.0247   18.5314 H   0  0  0  0  0  0  0  0  0  0  0  0
    8.2328   -0.2138   15.0964 H   0  0  0  0  0  0  0  0  0  0  0  0
    8.3392   -1.7916   15.7538 H   0  0  0  0  0  0  0  0  0  0  0  0
    6.8730   -0.8340   16.0456 H   0  0  0  0  0  0  0  0  0  0  0  0
    8.2501    2.5733   17.1574 H   0  0  0  0  0  0  0  0  0  0  0  0
    9.8710    4.1384   16.1790 H   0  0  0  0  0  0  0  0  0  0  0  0
   12.9386   -1.2515   14.4791 H   0  0  0  0  0  0  0  0  0  0  0  0
   10.7274   -1.6847   16.0379 H   0  0  0  0  0  0  0  0  0  0  0  0
  1  2  1  0
  2  3  1  0
  3  4  1  0
  4  5  1  0
  5  6  2  0
  6  7  1  0
  7  8  2  0
  8  9  1  0
  9 10  1  0
 10 11  1  0
 11 12  1  0
 12 13  1  0
 12 14  1  0
 14 15  2  0
 15 16  1  0
 16 17  2  0
 17 18  1  0
 18 19  2  0
 19 20  1  0
 20 21  2  0
 21 22  1  0
  8  4  1  0
 22 14  1  0
 22 18  1  0
  1 23  1  0
  1 24  1  0
  1 25  1  0
  2 26  1  0
  2 27  1  0
  3 28  1  0
  3 29  1  0
  5 30  1  0
  6 31  1  0
  9 32  1  0
  9 33  1  0
 10 34  1  0
 10 35  1  0
 11 36  1  0
 11 37  1  0
 13 38  1  0
 13 39  1  0
 13 40  1  0
 15 41  1  0
 16 42  1  0
 20 43  1  0
 21 44  1  0
M  END
>  <Energy>  (885) 
568.06020860380033

>  <compound_id>  (885) 
8673

>  <target_id>  (885) 
1

>  <reference_id>  (885) 
106

>  <inspiration_ids>  (885) 
[70, 106]

>  <energy_score>  (885) 
480.503285674369

>  <distance_score>  (885) 
6.0329124029839925

>  <path>  (885) 
/opt/xchem-fragalysis-2/maxwin/BulkDock/SCRATCH/511015/C8673-P106/C8673-P106.minimised.mol

>  <scratch_subdir>  (885) 
/opt/xchem-fragalysis-2/maxwin/BulkDock/SCRATCH/511015/C8673-P106

>  <fragmenstein_runtime>  (885) 
8.084059476852417

>  <fragmenstein_outcome>  (885) 
too moved

>  <fragmenstein_mode>  (885) 
expansion

>  <fragmenstein_error>  (885) 


$$$$
C69778-P70
     RDKit          3D

 45 47  0  0  0  0  0  0  0  0999 V2000
   11.1453   -3.7330   14.8801 C   0  0  0  0  0  0  0  0  0  0  0  0
   11.4930   -4.2470   16.5099 C   0  0  0  0  0  0  0  0  0  0  0  0
   12.9125   -3.9068   17.0235 C   0  0  0  0  0  0  0  0  0  0  0  0
   10.2551   -4.1039   17.5017 N   0  0  0  0  0  0  0  0  0  0  0  0
   10.6433   -2.3283   16.6523 C   0  0  0  0  0  0  0  0  0  0  0  0
    9.4173   -1.0343   16.1812 C   0  0  0  0  0  0  0  0  0  0  0  0
    8.2421   -0.2129   17.3564 C   0  0  0  0  0  0  0  0  0  0  0  0
    8.1125   -1.2206   19.1220 C   0  0  0  0  0  0  0  0  0  0  0  0
    6.6418   -0.1092   20.2597 C   0  0  0  0  0  0  0  0  0  0  0  0
    5.4368    0.7595   21.7976 N   0  0  0  0  0  0  0  0  0  0  0  0
    3.6399    1.3555   21.8750 C   0  0  0  0  0  0  0  0  0  0  0  0
    2.7449    1.2948   21.0593 O   0  0  0  0  0  0  0  0  0  0  0  0
    3.1069    2.2574   23.2416 C   0  0  0  0  0  0  0  0  0  0  0  0
    2.5958    3.6386   22.8443 C   0  0  0  0  0  0  0  0  0  0  0  0
    1.9193    4.3306   23.7728 C   0  0  0  0  0  0  0  0  0  0  0  0
    1.7206    3.7725   25.0240 N   0  0  0  0  0  0  0  0  0  0  0  0
    1.0226    4.2409   26.1054 C   0  0  0  0  0  0  0  0  0  0  0  0
    1.1172    3.2531   27.0553 C   0  0  0  0  0  0  0  0  0  0  0  0
    1.8561    2.2008   26.5880 N   0  0  0  0  0  0  0  0  0  0  0  0
    2.2248    2.5257   25.3628 C   0  0  0  0  0  0  0  0  0  0  0  0
    2.9113    1.7744   24.4526 N   0  0  0  0  0  0  0  0  0  0  0  0
    8.7942   -3.4848   19.2230 C   0  0  0  0  0  0  0  0  0  0  0  0
   10.3742   -2.9691   14.7098 H   0  0  0  0  0  0  0  0  0  0  0  0
   10.6112   -4.4489   14.2837 H   0  0  0  0  0  0  0  0  0  0  0  0
   12.0540   -3.3665   14.4010 H   0  0  0  0  0  0  0  0  0  0  0  0
   11.5899   -5.2905   16.2262 H   0  0  0  0  0  0  0  0  0  0  0  0
   13.6559   -4.3547   16.3556 H   0  0  0  0  0  0  0  0  0  0  0  0
   13.1567   -2.8449   17.0769 H   0  0  0  0  0  0  0  0  0  0  0  0
   13.0712   -4.3395   18.0166 H   0  0  0  0  0  0  0  0  0  0  0  0
   11.4366   -1.8992   17.3018 H   0  0  0  0  0  0  0  0  0  0  0  0
   11.4177   -2.1681   15.8878 H   0  0  0  0  0  0  0  0  0  0  0  0
    8.8105   -1.4139   15.3496 H   0  0  0  0  0  0  0  0  0  0  0  0
   10.0228   -0.2062   15.7890 H   0  0  0  0  0  0  0  0  0  0  0  0
    7.3393   -0.2170   16.7332 H   0  0  0  0  0  0  0  0  0  0  0  0
    8.6039    0.8108   17.4872 H   0  0  0  0  0  0  0  0  0  0  0  0
    8.8003   -0.6668   19.7079 H   0  0  0  0  0  0  0  0  0  0  0  0
    6.7674   -0.9871   20.8701 H   0  0  0  0  0  0  0  0  0  0  0  0
    7.4511    0.5884   20.5156 H   0  0  0  0  0  0  0  0  0  0  0  0
    5.9164    1.0444   22.6121 H   0  0  0  0  0  0  0  0  0  0  0  0
    2.7413    3.9785   21.8270 H   0  0  0  0  0  0  0  0  0  0  0  0
    1.4860    5.3042   23.5826 H   0  0  0  0  0  0  0  0  0  0  0  0
    0.5255    5.2003   26.1043 H   0  0  0  0  0  0  0  0  0  0  0  0
    0.6909    3.2462   28.0503 H   0  0  0  0  0  0  0  0  0  0  0  0
    9.2232   -3.6512   20.2003 H   0  0  0  0  0  0  0  0  0  0  0  0
    7.9624   -4.1994   19.4092 H   0  0  0  0  0  0  0  0  0  0  0  0
  1  2  1  0
  2  3  1  0
  2  4  1  0
  4  5  1  0
  5  6  1  0
  6  7  1  0
  7  8  1  0
  8  9  1  0
  9 10  1  0
 10 11  1  0
 11 12  2  0
 11 13  1  0
 13 14  1  0
 14 15  2  0
 15 16  1  0
 16 17  1  0
 17 18  2  0
 18 19  1  0
 19 20  2  0
 20 21  1  0
  8 22  1  0
 22  4  1  0
 21 13  2  0
 20 16  1  0
  1 23  1  0
  1 24  1  0
  1 25  1  0
  2 26  1  0
  3 27  1  0
  3 28  1  0
  3 29  1  0
  5 30  1  0
  5 31  1  0
  6 32  1  0
  6 33  1  0
  7 34  1  0
  7 35  1  0
  8 36  1  0
  9 37  1  0
  9 38  1  0
 10 39  1  0
 14 40  1  0
 15 41  1  0
 17 42  1  0
 18 43  1  0
 22 44  1  0
 22 45  1  0
M  END
>  <Energy>  (886) 
1425.6373755738346

>  <compound_id>  (886) 
69778

>  <target_id>  (886) 
1

>  <reference_id>  (886) 
70

>  <inspiration_ids>  (886) 
[70, 106]

>  <energy_score>  (886) 
1311.6705807550343

>  <distance_score>  (886) 
5.207122046555786

>  <path>  (886) 
/opt/xchem-fragalysis-2/maxwin/BulkDock/SCRATCH/511015/C69778-P70/C69778-P70.minimised.mol

>  <scratch_subdir>  (886) 
/opt/xchem-fragalysis-2/maxwin/BulkDock/SCRATCH/511015/C69778-P70

>  <fragmenstein_runtime>  (886) 
10.304380178451538

>  <fragmenstein_outcome>  (886) 
too moved

>  <fragmenstein_mode>  (886) 
expansion

>  <fragmenstein_error>  (886) 


$$$$
C69778-P106
     RDKit          3D

 45 47  0  0  0  0  0  0  0  0999 V2000
   12.2759   -1.7642   14.3728 C   0  0  0  0  0  0  0  0  0  0  0  0
   12.1597   -1.3067   15.8275 C   0  0  0  0  0  0  0  0  0  0  0  0
   13.5460   -0.9489   16.3812 C   0  0  0  0  0  0  0  0  0  0  0  0
   11.1845   -0.2252   16.0554 N   0  0  0  0  0  0  0  0  0  0  0  0
   11.6434    1.0967   15.5901 C   0  0  0  0  0  0  0  0  0  0  0  0
   10.5004    2.0886   15.3488 C   0  0  0  0  0  0  0  0  0  0  0  0
    9.3829    1.8779   16.3603 C   0  0  0  0  0  0  0  0  0  0  0  0
    8.8040    0.4451   16.2952 C   0  0  0  0  0  0  0  0  0  0  0  0
    8.1045   -0.1853   17.6632 C   0  0  0  0  0  0  0  0  0  0  0  0
    6.9158   -0.2538   18.8263 N   0  0  0  0  0  0  0  0  0  0  0  0
    6.8889    0.2290   20.2498 C   0  0  0  0  0  0  0  0  0  0  0  0
    7.7914    0.6849   20.8717 O   0  0  0  0  0  0  0  0  0  0  0  0
    4.9786    0.3833   21.3490 C   0  0  0  0  0  0  0  0  0  0  0  0
    3.1728    1.4145   21.1732 C   0  0  0  0  0  0  0  0  0  0  0  0
    2.3852    2.4825   21.6047 C   0  0  0  0  0  0  0  0  0  0  0  0
    2.4567    2.7036   22.8813 N   0  0  0  0  0  0  0  0  0  0  0  0
    1.8040    3.4603   23.8000 C   0  0  0  0  0  0  0  0  0  0  0  0
    1.9791    2.7625   24.9650 C   0  0  0  0  0  0  0  0  0  0  0  0
    2.7260    1.6268   24.7201 N   0  0  0  0  0  0  0  0  0  0  0  0
    3.0827    1.6254   23.3844 C   0  0  0  0  0  0  0  0  0  0  0  0
    4.5294    0.8414   22.5368 N   0  0  0  0  0  0  0  0  0  0  0  0
    9.8239   -0.5148   15.6178 C   0  0  0  0  0  0  0  0  0  0  0  0
   11.3840   -2.3168   14.0695 H   0  0  0  0  0  0  0  0  0  0  0  0
   13.1260   -2.4398   14.2502 H   0  0  0  0  0  0  0  0  0  0  0  0
   12.4233   -0.9325   13.6782 H   0  0  0  0  0  0  0  0  0  0  0  0
   11.8231   -2.1755   16.4068 H   0  0  0  0  0  0  0  0  0  0  0  0
   14.0454   -0.1803   15.7819 H   0  0  0  0  0  0  0  0  0  0  0  0
   13.4809   -0.5921   17.4144 H   0  0  0  0  0  0  0  0  0  0  0  0
   14.1931   -1.8334   16.3836 H   0  0  0  0  0  0  0  0  0  0  0  0
   12.3106    1.5185   16.3515 H   0  0  0  0  0  0  0  0  0  0  0  0
   12.2190    1.0329   14.6600 H   0  0  0  0  0  0  0  0  0  0  0  0
   10.1043    1.9651   14.3332 H   0  0  0  0  0  0  0  0  0  0  0  0
   10.8818    3.1137   15.4172 H   0  0  0  0  0  0  0  0  0  0  0  0
    9.8008    2.0726   17.3332 H   0  0  0  0  0  0  0  0  0  0  0  0
    8.5847    2.6136   16.2119 H   0  0  0  0  0  0  0  0  0  0  0  0
    8.0101    0.5390   15.5669 H   0  0  0  0  0  0  0  0  0  0  0  0
    7.3361   -0.5052   16.9274 H   0  0  0  0  0  0  0  0  0  0  0  0
    8.0890    0.8772   17.9057 H   0  0  0  0  0  0  0  0  0  0  0  0
    6.0212   -0.6618   18.6083 H   0  0  0  0  0  0  0  0  0  0  0  0
    2.7154    1.7661   20.2449 H   0  0  0  0  0  0  0  0  0  0  0  0
    1.6245    3.0211   21.0463 H   0  0  0  0  0  0  0  0  0  0  0  0
    1.2529    4.3537   23.5483 H   0  0  0  0  0  0  0  0  0  0  0  0
    1.6105    2.9900   25.9562 H   0  0  0  0  0  0  0  0  0  0  0  0
    9.7530   -0.3926   14.5321 H   0  0  0  0  0  0  0  0  0  0  0  0
    9.5400   -1.5469   15.8212 H   0  0  0  0  0  0  0  0  0  0  0  0
  1  2  1  0
  2  3  1  0
  2  4  1  0
  4  5  1  0
  5  6  1  0
  6  7  1  0
  7  8  1  0
  8  9  1  0
  9 10  1  0
 10 11  1  0
 11 12  2  0
 11 13  1  0
 13 14  1  0
 14 15  2  0
 15 16  1  0
 16 17  1  0
 17 18  2  0
 18 19  1  0
 19 20  2  0
 20 21  1  0
  8 22  1  0
 22  4  1  0
 21 13  2  0
 20 16  1  0
  1 23  1  0
  1 24  1  0
  1 25  1  0
  2 26  1  0
  3 27  1  0
  3 28  1  0
  3 29  1  0
  5 30  1  0
  5 31  1  0
  6 32  1  0
  6 33  1  0
  7 34  1  0
  7 35  1  0
  8 36  1  0
  9 37  1  0
  9 38  1  0
 10 39  1  0
 14 40  1  0
 15 41  1  0
 17 42  1  0
 18 43  1  0
 22 44  1  0
 22 45  1  0
M  END
>  <Energy>  (887) 
742.85665173793029

>  <compound_id>  (887) 
69778

>  <target_id>  (887) 
1

>  <reference_id>  (887) 
106

>  <inspiration_ids>  (887) 
[70, 106]

>  <energy_score>  (887) 
628.8898569191194

>  <distance_score>  (887) 
6.395666762588725

>  <path>  (887) 
/opt/xchem-fragalysis-2/maxwin/BulkDock/SCRATCH/511015/C69778-P106/C69778-P106.minimised.mol

>  <scratch_subdir>  (887) 
/opt/xchem-fragalysis-2/maxwin/BulkDock/SCRATCH/511015/C69778-P106

>  <fragmenstein_runtime>  (887) 
13.166510105133057

>  <fragmenstein_outcome>  (887) 
too moved

>  <fragmenstein_mode>  (887) 
expansion

>  <fragmenstein_error>  (887) 


$$$$
C8778-P70
     RDKit          3D

 38 41  0  0  0  0  0  0  0  0999 V2000
    1.3863    3.7484   23.4449 C   0  0  0  0  0  0  0  0  0  0  0  0
    1.5191    3.4902   22.0937 C   0  0  0  0  0  0  0  0  0  0  0  0
    2.4546    2.5320   21.6210 C   0  0  0  0  0  0  0  0  0  0  0  0
    3.3358    1.8277   22.4855 C   0  0  0  0  0  0  0  0  0  0  0  0
    4.8590    0.6715   22.0241 C   0  0  0  0  0  0  0  0  0  0  0  0
    6.6131    0.2349   20.9996 C   0  0  0  0  0  0  0  0  0  0  0  0
    7.0258   -1.0489   20.6474 C   0  0  0  0  0  0  0  0  0  0  0  0
    7.7878   -0.6622   19.4597 C   0  0  0  0  0  0  0  0  0  0  0  0
    7.6680    0.2321   18.4131 N   0  0  0  0  0  0  0  0  0  0  0  0
    8.5196    0.8856   17.2034 C   0  0  0  0  0  0  0  0  0  0  0  0
    8.6153    2.2356   17.0351 C   0  0  0  0  0  0  0  0  0  0  0  0
    9.6986    2.7938   16.1781 C   0  0  0  0  0  0  0  0  0  0  0  0
   10.5716    2.1154   15.5129 N   0  0  0  0  0  0  0  0  0  0  0  0
   10.3729    0.7752   15.5404 C   0  0  0  0  0  0  0  0  0  0  0  0
   11.1294   -0.1808   15.0442 N   0  0  0  0  0  0  0  0  0  0  0  0
   10.3340   -1.2876   15.0413 C   0  0  0  0  0  0  0  0  0  0  0  0
    9.0975   -0.9863   15.5641 C   0  0  0  0  0  0  0  0  0  0  0  0
    9.2681    0.2083   16.1987 N   0  0  0  0  0  0  0  0  0  0  0  0
    7.2288    1.1665   19.4872 C   0  0  0  0  0  0  0  0  0  0  0  0
    3.0854    2.1000   23.8416 N   0  0  0  0  0  0  0  0  0  0  0  0
    2.1884    3.0214   24.2818 C   0  0  0  0  0  0  0  0  0  0  0  0
    0.6854    4.4818   23.8212 H   0  0  0  0  0  0  0  0  0  0  0  0
    0.9052    4.0229   21.3715 H   0  0  0  0  0  0  0  0  0  0  0  0
    2.4702    2.4377   20.5537 H   0  0  0  0  0  0  0  0  0  0  0  0
    4.3697   -0.1889   21.7169 H   0  0  0  0  0  0  0  0  0  0  0  0
    4.9730    0.2139   23.0248 H   0  0  0  0  0  0  0  0  0  0  0  0
    5.7073    0.0478   20.6174 H   0  0  0  0  0  0  0  0  0  0  0  0
    6.5790   -2.0256   20.5669 H   0  0  0  0  0  0  0  0  0  0  0  0
    6.1153   -1.4001   21.2196 H   0  0  0  0  0  0  0  0  0  0  0  0
    8.2930   -1.3036   18.9102 H   0  0  0  0  0  0  0  0  0  0  0  0
    8.5946   -0.4255   20.1128 H   0  0  0  0  0  0  0  0  0  0  0  0
    8.0444    2.9856   17.5539 H   0  0  0  0  0  0  0  0  0  0  0  0
    9.7648    3.8948   16.1745 H   0  0  0  0  0  0  0  0  0  0  0  0
   10.6526   -2.2041   14.5598 H   0  0  0  0  0  0  0  0  0  0  0  0
    8.1498   -1.4957   15.5504 H   0  0  0  0  0  0  0  0  0  0  0  0
    7.7799    1.6160   20.3385 H   0  0  0  0  0  0  0  0  0  0  0  0
    7.1973    2.1452   19.0380 H   0  0  0  0  0  0  0  0  0  0  0  0
    2.1482    3.1426   25.3592 H   0  0  0  0  0  0  0  0  0  0  0  0
  1  2  2  0
  2  3  1  0
  3  4  2  0
  4  5  1  0
  5  6  1  0
  6  7  1  0
  7  8  1  0
  8  9  1  0
  9 10  1  0
 10 11  2  0
 11 12  1  0
 12 13  2  0
 13 14  1  0
 14 15  2  0
 15 16  1  0
 16 17  2  0
 17 18  1  0
  9 19  1  0
  4 20  1  0
 20 21  2  0
 21  1  1  0
 19  6  1  0
 18 10  1  0
 18 14  1  0
  1 22  1  0
  2 23  1  0
  3 24  1  0
  5 25  1  0
  5 26  1  0
  6 27  1  0
  7 28  1  0
  7 29  1  0
  8 30  1  0
  8 31  1  0
 11 32  1  0
 12 33  1  0
 16 34  1  0
 17 35  1  0
 19 36  1  0
 19 37  1  0
 21 38  1  0
M  END
>  <Energy>  (888) 
601.37096917794986

>  <compound_id>  (888) 
8778

>  <target_id>  (888) 
1

>  <reference_id>  (888) 
70

>  <inspiration_ids>  (888) 
[70, 106]

>  <energy_score>  (888) 
498.46841877897936

>  <distance_score>  (888) 
5.974160583870554

>  <path>  (888) 
/opt/xchem-fragalysis-2/maxwin/BulkDock/SCRATCH/511015/C8778-P70/C8778-P70.minimised.mol

>  <scratch_subdir>  (888) 
/opt/xchem-fragalysis-2/maxwin/BulkDock/SCRATCH/511015/C8778-P70

>  <fragmenstein_runtime>  (888) 
5.625842809677124

>  <fragmenstein_outcome>  (888) 
too moved

>  <fragmenstein_mode>  (888) 
expansion

>  <fragmenstein_error>  (888) 


$$$$
C8778-P106
     RDKit          3D

 38 41  0  0  0  0  0  0  0  0999 V2000
    1.0299    4.2030   24.8819 C   0  0  0  0  0  0  0  0  0  0  0  0
    1.2998    4.6163   23.5850 C   0  0  0  0  0  0  0  0  0  0  0  0
    2.0891    3.8217   22.7452 C   0  0  0  0  0  0  0  0  0  0  0  0
    2.5923    2.5995   23.2115 C   0  0  0  0  0  0  0  0  0  0  0  0
    3.3969    1.5859   22.1499 C   0  0  0  0  0  0  0  0  0  0  0  0
    5.2930    0.7446   21.9030 C   0  0  0  0  0  0  0  0  0  0  0  0
    5.7684   -0.6450   21.4885 C   0  0  0  0  0  0  0  0  0  0  0  0
    7.1382   -0.3068   20.0917 C   0  0  0  0  0  0  0  0  0  0  0  0
    7.3796    1.2617   19.6424 N   0  0  0  0  0  0  0  0  0  0  0  0
    7.8213    2.0273   18.1710 C   0  0  0  0  0  0  0  0  0  0  0  0
    7.5114    3.3250   17.8374 C   0  0  0  0  0  0  0  0  0  0  0  0
    8.2935    3.9953   16.7590 C   0  0  0  0  0  0  0  0  0  0  0  0
    9.2280    3.4828   16.0314 N   0  0  0  0  0  0  0  0  0  0  0  0
    9.3796    2.1432   16.1710 C   0  0  0  0  0  0  0  0  0  0  0  0
   10.1410    1.3432   15.4461 N   0  0  0  0  0  0  0  0  0  0  0  0
    9.6271    0.0979   15.6201 C   0  0  0  0  0  0  0  0  0  0  0  0
    8.6018    0.1524   16.5264 C   0  0  0  0  0  0  0  0  0  0  0  0
    8.6074    1.4076   17.0918 N   0  0  0  0  0  0  0  0  0  0  0  0
    7.0035    1.8283   21.2612 C   0  0  0  0  0  0  0  0  0  0  0  0
    2.3133    2.2070   24.4910 N   0  0  0  0  0  0  0  0  0  0  0  0
    1.5690    3.0053   25.2917 C   0  0  0  0  0  0  0  0  0  0  0  0
    0.4294    4.8066   25.5524 H   0  0  0  0  0  0  0  0  0  0  0  0
    0.9014    5.5585   23.2178 H   0  0  0  0  0  0  0  0  0  0  0  0
    2.2857    4.1508   21.7288 H   0  0  0  0  0  0  0  0  0  0  0  0
    2.7015    1.0061   21.5838 H   0  0  0  0  0  0  0  0  0  0  0  0
    2.9910    2.2136   21.2996 H   0  0  0  0  0  0  0  0  0  0  0  0
    4.7148    0.5332   21.1084 H   0  0  0  0  0  0  0  0  0  0  0  0
    5.7595   -1.1836   22.4180 H   0  0  0  0  0  0  0  0  0  0  0  0
    5.5509   -1.7377   21.4076 H   0  0  0  0  0  0  0  0  0  0  0  0
    8.0665   -0.5599   20.5267 H   0  0  0  0  0  0  0  0  0  0  0  0
    7.0170   -0.7569   19.1281 H   0  0  0  0  0  0  0  0  0  0  0  0
    6.8839    3.9919   18.4069 H   0  0  0  0  0  0  0  0  0  0  0  0
    8.0738    5.0698   16.6404 H   0  0  0  0  0  0  0  0  0  0  0  0
    9.9456   -0.7322   15.0008 H   0  0  0  0  0  0  0  0  0  0  0  0
    7.7800   -0.4971   16.7050 H   0  0  0  0  0  0  0  0  0  0  0  0
    7.9483    1.6467   21.7899 H   0  0  0  0  0  0  0  0  0  0  0  0
    6.8287    2.9280   21.2532 H   0  0  0  0  0  0  0  0  0  0  0  0
    1.4122    2.6297   26.2982 H   0  0  0  0  0  0  0  0  0  0  0  0
  1  2  2  0
  2  3  1  0
  3  4  2  0
  4  5  1  0
  5  6  1  0
  6  7  1  0
  7  8  1  0
  8  9  1  0
  9 10  1  0
 10 11  2  0
 11 12  1  0
 12 13  2  0
 13 14  1  0
 14 15  2  0
 15 16  1  0
 16 17  2  0
 17 18  1  0
  9 19  1  0
  4 20  1  0
 20 21  2  0
 21  1  1  0
 19  6  1  0
 18 10  1  0
 18 14  1  0
  1 22  1  0
  2 23  1  0
  3 24  1  0
  5 25  1  0
  5 26  1  0
  6 27  1  0
  7 28  1  0
  7 29  1  0
  8 30  1  0
  8 31  1  0
 11 32  1  0
 12 33  1  0
 16 34  1  0
 17 35  1  0
 19 36  1  0
 19 37  1  0
 21 38  1  0
M  END
>  <Energy>  (889) 
542.59378353003819

>  <compound_id>  (889) 
8778

>  <target_id>  (889) 
1

>  <reference_id>  (889) 
106

>  <inspiration_ids>  (889) 
[70, 106]

>  <energy_score>  (889) 
439.6912331310673

>  <distance_score>  (889) 
5.879090216952589

>  <path>  (889) 
/opt/xchem-fragalysis-2/maxwin/BulkDock/SCRATCH/511015/C8778-P106/C8778-P106.minimised.mol

>  <scratch_subdir>  (889) 
/opt/xchem-fragalysis-2/maxwin/BulkDock/SCRATCH/511015/C8778-P106

>  <fragmenstein_runtime>  (889) 
5.818241834640503

>  <fragmenstein_outcome>  (889) 
too moved

>  <fragmenstein_mode>  (889) 
expansion

>  <fragmenstein_error>  (889) 


$$$$
C8782-P70
     RDKit          3D

 39 42  0  0  0  0  0  0  0  0999 V2000
   16.3605   -2.6408   15.4246 C   0  0  0  0  0  0  0  0  0  0  0  0
   15.9814   -3.2192   16.7871 C   0  0  0  0  0  0  0  0  0  0  0  0
   17.2469   -3.6466   17.5820 C   0  0  0  0  0  0  0  0  0  0  0  0
   17.7854   -5.0127   17.2179 C   0  0  0  0  0  0  0  0  0  0  0  0
   18.8597   -5.1048   16.3169 C   0  0  0  0  0  0  0  0  0  0  0  0
   19.3706   -6.3455   15.9299 C   0  0  0  0  0  0  0  0  0  0  0  0
   18.8132   -7.5159   16.4348 C   0  0  0  0  0  0  0  0  0  0  0  0
   17.7484   -7.4439   17.3279 C   0  0  0  0  0  0  0  0  0  0  0  0
   17.2390   -6.2020   17.7176 C   0  0  0  0  0  0  0  0  0  0  0  0
   16.7975   -3.4629   19.0318 C   0  0  0  0  0  0  0  0  0  0  0  0
   16.0320   -2.1505   18.9559 C   0  0  0  0  0  0  0  0  0  0  0  0
   15.3120   -2.2221   17.6743 N   0  0  0  0  0  0  0  0  0  0  0  0
   14.4392   -1.2134   17.2355 C   0  0  0  0  0  0  0  0  0  0  0  0
   14.6387    0.0906   17.5125 C   0  0  0  0  0  0  0  0  0  0  0  0
   13.6683    1.0581   16.9460 C   0  0  0  0  0  0  0  0  0  0  0  0
   12.6206    0.7743   16.2421 N   0  0  0  0  0  0  0  0  0  0  0  0
   12.3979   -0.5511   16.0184 C   0  0  0  0  0  0  0  0  0  0  0  0
   11.3679   -1.1024   15.4111 N   0  0  0  0  0  0  0  0  0  0  0  0
   11.6002   -2.4476   15.4175 C   0  0  0  0  0  0  0  0  0  0  0  0
   12.7371   -2.7423   16.1270 C   0  0  0  0  0  0  0  0  0  0  0  0
   13.2804   -1.5309   16.4882 N   0  0  0  0  0  0  0  0  0  0  0  0
   15.4767   -2.3502   14.8493 H   0  0  0  0  0  0  0  0  0  0  0  0
   16.9917   -1.7514   15.5296 H   0  0  0  0  0  0  0  0  0  0  0  0
   16.9057   -3.3758   14.8245 H   0  0  0  0  0  0  0  0  0  0  0  0
   15.3181   -4.0804   16.6530 H   0  0  0  0  0  0  0  0  0  0  0  0
   18.0456   -2.9089   17.4091 H   0  0  0  0  0  0  0  0  0  0  0  0
   19.3096   -4.2044   15.9025 H   0  0  0  0  0  0  0  0  0  0  0  0
   20.2026   -6.3970   15.2324 H   0  0  0  0  0  0  0  0  0  0  0  0
   19.2052   -8.4834   16.1324 H   0  0  0  0  0  0  0  0  0  0  0  0
   17.3031   -8.3577   17.7154 H   0  0  0  0  0  0  0  0  0  0  0  0
   16.4001   -6.1915   18.4075 H   0  0  0  0  0  0  0  0  0  0  0  0
   17.6365   -3.4160   19.7328 H   0  0  0  0  0  0  0  0  0  0  0  0
   16.1200   -4.2563   19.3654 H   0  0  0  0  0  0  0  0  0  0  0  0
   16.7320   -1.3068   18.9577 H   0  0  0  0  0  0  0  0  0  0  0  0
   15.3409   -2.0439   19.7984 H   0  0  0  0  0  0  0  0  0  0  0  0
   15.4761    0.4798   18.0712 H   0  0  0  0  0  0  0  0  0  0  0  0
   13.8885    2.1173   17.1611 H   0  0  0  0  0  0  0  0  0  0  0  0
   10.9159   -3.1358   14.9374 H   0  0  0  0  0  0  0  0  0  0  0  0
   13.1888   -3.6826   16.3942 H   0  0  0  0  0  0  0  0  0  0  0  0
  1  2  1  0
  2  3  1  0
  3  4  1  0
  4  5  2  0
  5  6  1  0
  6  7  2  0
  7  8  1  0
  8  9  2  0
  3 10  1  0
 10 11  1  0
 11 12  1  0
 12 13  1  0
 13 14  2  0
 14 15  1  0
 15 16  2  0
 16 17  1  0
 17 18  2  0
 18 19  1  0
 19 20  2  0
 20 21  1  0
 12  2  1  0
 21 13  1  0
  9  4  1  0
 21 17  1  0
  1 22  1  0
  1 23  1  0
  1 24  1  0
  2 25  1  0
  3 26  1  0
  5 27  1  0
  6 28  1  0
  7 29  1  0
  8 30  1  0
  9 31  1  0
 10 32  1  0
 10 33  1  0
 11 34  1  0
 11 35  1  0
 14 36  1  0
 15 37  1  0
 19 38  1  0
 20 39  1  0
M  END
>  <Energy>  (890) 
89.115273465961337

>  <compound_id>  (890) 
8782

>  <target_id>  (890) 
1

>  <reference_id>  (890) 
70

>  <inspiration_ids>  (890) 
[70, 106]

>  <energy_score>  (890) 
-40.60301979238966

>  <distance_score>  (890) 
0.267404390301759

>  <path>  (890) 
/opt/xchem-fragalysis-2/maxwin/BulkDock/SCRATCH/511015/C8782-P70/C8782-P70.minimised.mol

>  <scratch_subdir>  (890) 
/opt/xchem-fragalysis-2/maxwin/BulkDock/SCRATCH/511015/C8782-P70

>  <fragmenstein_runtime>  (890) 
9.883662939071655

>  <fragmenstein_outcome>  (890) 
acceptable

>  <fragmenstein_mode>  (890) 
expansion

>  <fragmenstein_error>  (890) 


$$$$
C8782-P106
     RDKit          3D

 39 42  0  0  0  0  0  0  0  0999 V2000
   16.3533   -2.6861   15.4277 C   0  0  0  0  0  0  0  0  0  0  0  0
   16.0134   -3.2165   16.8201 C   0  0  0  0  0  0  0  0  0  0  0  0
   17.3026   -3.5899   17.6050 C   0  0  0  0  0  0  0  0  0  0  0  0
   17.8580   -4.9613   17.2872 C   0  0  0  0  0  0  0  0  0  0  0  0
   18.8767   -5.0778   16.3261 C   0  0  0  0  0  0  0  0  0  0  0  0
   19.4040   -6.3241   15.9817 C   0  0  0  0  0  0  0  0  0  0  0  0
   18.9203   -7.4770   16.5915 C   0  0  0  0  0  0  0  0  0  0  0  0
   17.9123   -7.3814   17.5460 C   0  0  0  0  0  0  0  0  0  0  0  0
   17.3846   -6.1336   17.8911 C   0  0  0  0  0  0  0  0  0  0  0  0
   16.8810   -3.3479   19.0547 C   0  0  0  0  0  0  0  0  0  0  0  0
   16.0939   -2.0518   18.9376 C   0  0  0  0  0  0  0  0  0  0  0  0
   15.3442   -2.1938   17.6791 N   0  0  0  0  0  0  0  0  0  0  0  0
   14.4358   -1.2248   17.2222 C   0  0  0  0  0  0  0  0  0  0  0  0
   14.6023    0.0925   17.4554 C   0  0  0  0  0  0  0  0  0  0  0  0
   13.5956    1.0148   16.8765 C   0  0  0  0  0  0  0  0  0  0  0  0
   12.5439    0.6798   16.2019 N   0  0  0  0  0  0  0  0  0  0  0  0
   12.3544   -0.6575   16.0246 C   0  0  0  0  0  0  0  0  0  0  0  0
   11.3276   -1.2559   15.4578 N   0  0  0  0  0  0  0  0  0  0  0  0
   11.6000   -2.5931   15.4957 C   0  0  0  0  0  0  0  0  0  0  0  0
   12.7589   -2.8338   16.1893 C   0  0  0  0  0  0  0  0  0  0  0  0
   13.2736   -1.5975   16.5056 N   0  0  0  0  0  0  0  0  0  0  0  0
   15.4532   -2.4276   14.8626 H   0  0  0  0  0  0  0  0  0  0  0  0
   16.9755   -1.7861   15.4842 H   0  0  0  0  0  0  0  0  0  0  0  0
   16.8930   -3.4369   14.8426 H   0  0  0  0  0  0  0  0  0  0  0  0
   15.3645   -4.0949   16.7361 H   0  0  0  0  0  0  0  0  0  0  0  0
   18.0862   -2.8489   17.3830 H   0  0  0  0  0  0  0  0  0  0  0  0
   19.2701   -4.1918   15.8310 H   0  0  0  0  0  0  0  0  0  0  0  0
   20.1919   -6.3935   15.2363 H   0  0  0  0  0  0  0  0  0  0  0  0
   19.3263   -8.4491   16.3242 H   0  0  0  0  0  0  0  0  0  0  0  0
   17.5253   -8.2822   18.0177 H   0  0  0  0  0  0  0  0  0  0  0  0
   16.5910   -6.1069   18.6321 H   0  0  0  0  0  0  0  0  0  0  0  0
   17.7336   -3.2582   19.7349 H   0  0  0  0  0  0  0  0  0  0  0  0
   16.2216   -4.1343   19.4374 H   0  0  0  0  0  0  0  0  0  0  0  0
   16.7801   -1.1987   18.8824 H   0  0  0  0  0  0  0  0  0  0  0  0
   15.4221   -1.9164   19.7915 H   0  0  0  0  0  0  0  0  0  0  0  0
   15.4372    0.5227   17.9871 H   0  0  0  0  0  0  0  0  0  0  0  0
   13.7899    2.0860   17.0539 H   0  0  0  0  0  0  0  0  0  0  0  0
   10.9275   -3.3150   15.0495 H   0  0  0  0  0  0  0  0  0  0  0  0
   13.2423   -3.7531   16.4737 H   0  0  0  0  0  0  0  0  0  0  0  0
  1  2  1  0
  2  3  1  0
  3  4  1  0
  4  5  2  0
  5  6  1  0
  6  7  2  0
  7  8  1  0
  8  9  2  0
  3 10  1  0
 10 11  1  0
 11 12  1  0
 12 13  1  0
 13 14  2  0
 14 15  1  0
 15 16  2  0
 16 17  1  0
 17 18  2  0
 18 19  1  0
 19 20  2  0
 20 21  1  0
 12  2  1  0
 21 13  1  0
  9  4  1  0
 21 17  1  0
  1 22  1  0
  1 23  1  0
  1 24  1  0
  2 25  1  0
  3 26  1  0
  5 27  1  0
  6 28  1  0
  7 29  1  0
  8 30  1  0
  9 31  1  0
 10 32  1  0
 10 33  1  0
 11 34  1  0
 11 35  1  0
 14 36  1  0
 15 37  1  0
 19 38  1  0
 20 39  1  0
M  END
>  <Energy>  (891) 
89.255450438325425

>  <compound_id>  (891) 
8782

>  <target_id>  (891) 
1

>  <reference_id>  (891) 
106

>  <inspiration_ids>  (891) 
[70, 106]

>  <energy_score>  (891) 
-40.46284282002608

>  <distance_score>  (891) 
0.28333247097712955

>  <path>  (891) 
/opt/xchem-fragalysis-2/maxwin/BulkDock/SCRATCH/511015/C8782-P106/C8782-P106.minimised.mol

>  <scratch_subdir>  (891) 
/opt/xchem-fragalysis-2/maxwin/BulkDock/SCRATCH/511015/C8782-P106

>  <fragmenstein_runtime>  (891) 
10.65428614616394

>  <fragmenstein_outcome>  (891) 
acceptable

>  <fragmenstein_mode>  (891) 
expansion

>  <fragmenstein_error>  (891) 


$$$$
C8666-P70
     RDKit          3D

 36 39  0  0  0  0  0  0  0  0999 V2000
    3.5118   -2.2887   25.8940 C   0  0  0  0  0  0  0  0  0  0  0  0
    3.9551   -2.9371   24.7559 C   0  0  0  0  0  0  0  0  0  0  0  0
    4.4816   -2.0857   23.8332 N   0  0  0  0  0  0  0  0  0  0  0  0
    5.4644   -2.1053   22.3110 C   0  0  0  0  0  0  0  0  0  0  0  0
    6.8179   -2.9532   20.8432 C   0  0  0  0  0  0  0  0  0  0  0  0
    5.5738   -3.1845   21.2924 C   0  0  0  0  0  0  0  0  0  0  0  0
    6.8014   -4.1082   22.7566 C   0  0  0  0  0  0  0  0  0  0  0  0
    7.7245   -4.9950   22.0035 C   0  0  0  0  0  0  0  0  0  0  0  0
    8.4102   -4.2639   20.4205 N   0  0  0  0  0  0  0  0  0  0  0  0
   10.2714   -5.0412   20.0612 C   0  0  0  0  0  0  0  0  0  0  0  0
   11.4791   -4.3285   20.9549 C   0  0  0  0  0  0  0  0  0  0  0  0
   12.7722   -4.9451   21.3984 C   0  0  0  0  0  0  0  0  0  0  0  0
   13.6021   -5.4718   20.5933 N   0  0  0  0  0  0  0  0  0  0  0  0
   13.2176   -5.1116   19.3631 C   0  0  0  0  0  0  0  0  0  0  0  0
   14.0777   -4.7790   18.4186 N   0  0  0  0  0  0  0  0  0  0  0  0
   13.4055   -4.2362   17.3905 C   0  0  0  0  0  0  0  0  0  0  0  0
   12.0706   -4.3291   17.6094 C   0  0  0  0  0  0  0  0  0  0  0  0
   11.7889   -5.0112   18.9953 N   0  0  0  0  0  0  0  0  0  0  0  0
    4.4034   -0.9474   24.6791 C   0  0  0  0  0  0  0  0  0  0  0  0
    3.7952   -0.9982   25.8305 N   0  0  0  0  0  0  0  0  0  0  0  0
    3.0586   -2.7275   26.7702 H   0  0  0  0  0  0  0  0  0  0  0  0
    4.0559   -3.9747   24.7019 H   0  0  0  0  0  0  0  0  0  0  0  0
    5.0074   -1.1797   21.9462 H   0  0  0  0  0  0  0  0  0  0  0  0
    5.9127   -1.8603   23.2412 H   0  0  0  0  0  0  0  0  0  0  0  0
    7.0351   -1.7216   20.6407 H   0  0  0  0  0  0  0  0  0  0  0  0
    5.5312   -3.4348   20.1763 H   0  0  0  0  0  0  0  0  0  0  0  0
    4.5751   -3.5873   20.9746 H   0  0  0  0  0  0  0  0  0  0  0  0
    6.9646   -3.7031   23.7452 H   0  0  0  0  0  0  0  0  0  0  0  0
    6.4687   -5.0237   23.3156 H   0  0  0  0  0  0  0  0  0  0  0  0
    8.1128   -5.6845   22.7517 H   0  0  0  0  0  0  0  0  0  0  0  0
    7.8956   -3.9881   22.1140 H   0  0  0  0  0  0  0  0  0  0  0  0
   11.3792   -3.5305   21.6743 H   0  0  0  0  0  0  0  0  0  0  0  0
   12.9400   -4.9661   22.4889 H   0  0  0  0  0  0  0  0  0  0  0  0
   13.9102   -3.8546   16.5129 H   0  0  0  0  0  0  0  0  0  0  0  0
   11.2328   -4.1240   16.9675 H   0  0  0  0  0  0  0  0  0  0  0  0
    4.7340   -0.0496   24.2604 H   0  0  0  0  0  0  0  0  0  0  0  0
  1  2  2  0
  2  3  1  0
  3  4  1  0
  4  5  1  0
  5  6  1  0
  6  7  1  0
  7  8  1  0
  8  9  1  0
  9 10  1  0
 10 11  2  0
 11 12  1  0
 12 13  2  0
 13 14  1  0
 14 15  2  0
 15 16  1  0
 16 17  2  0
 17 18  1  0
  3 19  1  0
 19 20  2  0
 20  1  1  0
  9  5  1  0
 18 10  1  0
 18 14  1  0
  1 21  1  0
  2 22  1  0
  4 23  1  0
  4 24  1  0
  5 25  1  0
  6 26  1  0
  6 27  1  0
  7 28  1  0
  7 29  1  0
  8 30  1  0
  8 31  1  0
 11 32  1  0
 12 33  1  0
 16 34  1  0
 17 35  1  0
 19 36  1  0
M  END
>  <Energy>  (892) 
1447.6000024468351

>  <compound_id>  (892) 
8666

>  <target_id>  (892) 
1

>  <reference_id>  (892) 
70

>  <inspiration_ids>  (892) 
[70, 106]

>  <energy_score>  (892) 
1332.5266358538188

>  <distance_score>  (892) 
7.001483093621672

>  <path>  (892) 
/opt/xchem-fragalysis-2/maxwin/BulkDock/SCRATCH/511015/C8666-P70/C8666-P70.minimised.mol

>  <scratch_subdir>  (892) 
/opt/xchem-fragalysis-2/maxwin/BulkDock/SCRATCH/511015/C8666-P70

>  <fragmenstein_runtime>  (892) 
5.529271841049194

>  <fragmenstein_outcome>  (892) 
too moved

>  <fragmenstein_mode>  (892) 
expansion

>  <fragmenstein_error>  (892) 


$$$$
C8666-P106
     RDKit          3D

 36 39  0  0  0  0  0  0  0  0999 V2000
    1.3030    4.0878   22.0704 C   0  0  0  0  0  0  0  0  0  0  0  0
    2.0820    3.2745   21.2798 C   0  0  0  0  0  0  0  0  0  0  0  0
    2.8146    2.4689   22.1421 N   0  0  0  0  0  0  0  0  0  0  0  0
    3.7519    1.0623   21.6701 C   0  0  0  0  0  0  0  0  0  0  0  0
    5.5659    0.2573   21.2912 C   0  0  0  0  0  0  0  0  0  0  0  0
    5.6977   -1.1452   21.7299 C   0  0  0  0  0  0  0  0  0  0  0  0
    6.9400   -1.3257   20.7433 C   0  0  0  0  0  0  0  0  0  0  0  0
    7.2241   -0.6528   19.4364 C   0  0  0  0  0  0  0  0  0  0  0  0
    7.1795    0.5960   19.9678 N   0  0  0  0  0  0  0  0  0  0  0  0
    7.5953    1.7616   18.5857 C   0  0  0  0  0  0  0  0  0  0  0  0
    7.2633    3.1133   18.2473 C   0  0  0  0  0  0  0  0  0  0  0  0
    7.8518    3.9530   17.1716 C   0  0  0  0  0  0  0  0  0  0  0  0
    8.6553    3.5934   16.2532 N   0  0  0  0  0  0  0  0  0  0  0  0
    8.8436    2.2671   16.2012 C   0  0  0  0  0  0  0  0  0  0  0  0
    9.3028    1.6608   15.1237 N   0  0  0  0  0  0  0  0  0  0  0  0
    9.1220    0.3454   15.3299 C   0  0  0  0  0  0  0  0  0  0  0  0
    9.0486    0.1986   16.6915 C   0  0  0  0  0  0  0  0  0  0  0  0
    8.4618    1.3472   17.2386 N   0  0  0  0  0  0  0  0  0  0  0  0
    2.3191    2.7921   23.4063 C   0  0  0  0  0  0  0  0  0  0  0  0
    1.4482    3.7750   23.3898 N   0  0  0  0  0  0  0  0  0  0  0  0
    0.6218    4.8637   21.7466 H   0  0  0  0  0  0  0  0  0  0  0  0
    2.1787    3.2041   20.2105 H   0  0  0  0  0  0  0  0  0  0  0  0
    4.0188    1.0968   22.6511 H   0  0  0  0  0  0  0  0  0  0  0  0
    2.8041    0.7959   21.3087 H   0  0  0  0  0  0  0  0  0  0  0  0
    5.9470    0.9194   21.9649 H   0  0  0  0  0  0  0  0  0  0  0  0
    5.3289   -2.1011   21.4336 H   0  0  0  0  0  0  0  0  0  0  0  0
    5.4889   -1.5202   22.7236 H   0  0  0  0  0  0  0  0  0  0  0  0
    7.8736   -1.0076   21.1003 H   0  0  0  0  0  0  0  0  0  0  0  0
    6.7175   -2.3707   20.8087 H   0  0  0  0  0  0  0  0  0  0  0  0
    8.2101   -0.8643   19.1300 H   0  0  0  0  0  0  0  0  0  0  0  0
    6.5890   -0.6988   18.5605 H   0  0  0  0  0  0  0  0  0  0  0  0
    6.7399    3.8803   18.8195 H   0  0  0  0  0  0  0  0  0  0  0  0
    7.5908    5.0243   17.2337 H   0  0  0  0  0  0  0  0  0  0  0  0
    9.4400   -0.3767   14.5891 H   0  0  0  0  0  0  0  0  0  0  0  0
   10.0015   -0.0671   17.0766 H   0  0  0  0  0  0  0  0  0  0  0  0
    2.5653    2.2261   24.2926 H   0  0  0  0  0  0  0  0  0  0  0  0
  1  2  2  0
  2  3  1  0
  3  4  1  0
  4  5  1  0
  5  6  1  0
  6  7  1  0
  7  8  1  0
  8  9  1  0
  9 10  1  0
 10 11  2  0
 11 12  1  0
 12 13  2  0
 13 14  1  0
 14 15  2  0
 15 16  1  0
 16 17  2  0
 17 18  1  0
  3 19  1  0
 19 20  2  0
 20  1  1  0
  9  5  1  0
 18 10  1  0
 18 14  1  0
  1 21  1  0
  2 22  1  0
  4 23  1  0
  4 24  1  0
  5 25  1  0
  6 26  1  0
  6 27  1  0
  7 28  1  0
  7 29  1  0
  8 30  1  0
  8 31  1  0
 11 32  1  0
 12 33  1  0
 16 34  1  0
 17 35  1  0
 19 36  1  0
M  END
>  <Energy>  (893) 
627.14285841476158

>  <compound_id>  (893) 
8666

>  <target_id>  (893) 
1

>  <reference_id>  (893) 
106

>  <inspiration_ids>  (893) 
[70, 106]

>  <energy_score>  (893) 
512.0694918217405

>  <distance_score>  (893) 
6.036418975672639

>  <path>  (893) 
/opt/xchem-fragalysis-2/maxwin/BulkDock/SCRATCH/511015/C8666-P106/C8666-P106.minimised.mol

>  <scratch_subdir>  (893) 
/opt/xchem-fragalysis-2/maxwin/BulkDock/SCRATCH/511015/C8666-P106

>  <fragmenstein_runtime>  (893) 
5.891828298568726

>  <fragmenstein_outcome>  (893) 
too moved

>  <fragmenstein_mode>  (893) 
expansion

>  <fragmenstein_error>  (893) 


$$$$
C8788-P70
     RDKit          3D

 41 44  0  0  0  0  0  0  0  0999 V2000
    2.5623    1.6949   21.2428 O   0  0  0  0  0  0  0  0  0  0  0  0
    3.5002    1.5486   22.0580 C   0  0  0  0  0  0  0  0  0  0  0  0
    5.2775    0.6860   21.6092 C   0  0  0  0  0  0  0  0  0  0  0  0
    7.2092    0.7840   20.5897 C   0  0  0  0  0  0  0  0  0  0  0  0
    7.6783   -0.4528   20.2071 C   0  0  0  0  0  0  0  0  0  0  0  0
    7.5743   -0.3950   18.7305 C   0  0  0  0  0  0  0  0  0  0  0  0
    8.0676    0.6707   17.8338 C   0  0  0  0  0  0  0  0  0  0  0  0
    7.5048    1.7730   18.8914 N   0  0  0  0  0  0  0  0  0  0  0  0
    7.5329    3.1426   18.0062 C   0  0  0  0  0  0  0  0  0  0  0  0
    6.8222    4.2829   18.2350 C   0  0  0  0  0  0  0  0  0  0  0  0
    7.0766    5.4993   17.4387 C   0  0  0  0  0  0  0  0  0  0  0  0
    7.9988    5.6782   16.5650 N   0  0  0  0  0  0  0  0  0  0  0  0
    8.7789    4.6045   16.3080 C   0  0  0  0  0  0  0  0  0  0  0  0
    9.8202    4.6134   15.5018 N   0  0  0  0  0  0  0  0  0  0  0  0
   10.2325    3.3369   15.4108 C   0  0  0  0  0  0  0  0  0  0  0  0
    9.4198    2.5272   16.1576 C   0  0  0  0  0  0  0  0  0  0  0  0
    8.5369    3.3269   16.8808 N   0  0  0  0  0  0  0  0  0  0  0  0
    2.9629    2.4583   23.3069 C   0  0  0  0  0  0  0  0  0  0  0  0
    2.7338    2.0184   24.6309 C   0  0  0  0  0  0  0  0  0  0  0  0
    2.0486    2.7890   25.5830 C   0  0  0  0  0  0  0  0  0  0  0  0
    1.5276    4.0212   25.2220 C   0  0  0  0  0  0  0  0  0  0  0  0
    1.7080    4.4825   23.9210 C   0  0  0  0  0  0  0  0  0  0  0  0
    2.4115    3.7129   22.9804 C   0  0  0  0  0  0  0  0  0  0  0  0
    5.8781    1.1479   22.3218 H   0  0  0  0  0  0  0  0  0  0  0  0
    4.9080   -0.3348   21.7822 H   0  0  0  0  0  0  0  0  0  0  0  0
    6.5201    0.1928   19.9733 H   0  0  0  0  0  0  0  0  0  0  0  0
    8.6350   -0.3488   20.5819 H   0  0  0  0  0  0  0  0  0  0  0  0
    7.1181   -1.2345   20.6813 H   0  0  0  0  0  0  0  0  0  0  0  0
    8.2561   -1.1250   18.7680 H   0  0  0  0  0  0  0  0  0  0  0  0
    6.5715   -0.6724   18.4155 H   0  0  0  0  0  0  0  0  0  0  0  0
    7.7230    0.5967   16.7846 H   0  0  0  0  0  0  0  0  0  0  0  0
    9.1335    0.7430   17.6920 H   0  0  0  0  0  0  0  0  0  0  0  0
    6.1001    4.4866   19.0109 H   0  0  0  0  0  0  0  0  0  0  0  0
    6.4023    6.3436   17.6632 H   0  0  0  0  0  0  0  0  0  0  0  0
   11.0463    3.0452   14.7599 H   0  0  0  0  0  0  0  0  0  0  0  0
    9.4362    1.4616   16.1022 H   0  0  0  0  0  0  0  0  0  0  0  0
    3.0862    1.0337   24.9374 H   0  0  0  0  0  0  0  0  0  0  0  0
    1.9104    2.4087   26.5919 H   0  0  0  0  0  0  0  0  0  0  0  0
    0.9810    4.6229   25.9439 H   0  0  0  0  0  0  0  0  0  0  0  0
    1.2896    5.4409   23.6215 H   0  0  0  0  0  0  0  0  0  0  0  0
    2.4936    4.0773   21.9566 H   0  0  0  0  0  0  0  0  0  0  0  0
  1  2  2  0
  2  3  1  0
  3  4  1  0
  4  5  1  0
  5  6  1  0
  6  7  1  0
  7  8  1  0
  8  9  1  0
  9 10  2  0
 10 11  1  0
 11 12  2  0
 12 13  1  0
 13 14  2  0
 14 15  1  0
 15 16  2  0
 16 17  1  0
  2 18  1  0
 18 19  2  0
 19 20  1  0
 20 21  2  0
 21 22  1  0
 22 23  2  0
  8  4  1  0
 17  9  1  0
 23 18  1  0
 17 13  1  0
  3 24  1  0
  3 25  1  0
  4 26  1  0
  5 27  1  0
  5 28  1  0
  6 29  1  0
  6 30  1  0
  7 31  1  0
  7 32  1  0
 10 33  1  0
 11 34  1  0
 15 35  1  0
 16 36  1  0
 19 37  1  0
 20 38  1  0
 21 39  1  0
 22 40  1  0
 23 41  1  0
M  END
>  <Energy>  (894) 
627.80037311736578

>  <compound_id>  (894) 
8788

>  <target_id>  (894) 
1

>  <reference_id>  (894) 
70

>  <inspiration_ids>  (894) 
[70, 106]

>  <energy_score>  (894) 
486.62304395671697

>  <distance_score>  (894) 
6.751584640990067

>  <path>  (894) 
/opt/xchem-fragalysis-2/maxwin/BulkDock/SCRATCH/511015/C8788-P70/C8788-P70.minimised.mol

>  <scratch_subdir>  (894) 
/opt/xchem-fragalysis-2/maxwin/BulkDock/SCRATCH/511015/C8788-P70

>  <fragmenstein_runtime>  (894) 
6.522895336151123

>  <fragmenstein_outcome>  (894) 
too moved

>  <fragmenstein_mode>  (894) 
expansion

>  <fragmenstein_error>  (894) 


$$$$
C8788-P106
     RDKit          3D

 41 44  0  0  0  0  0  0  0  0999 V2000
    2.2305    2.4076   21.0429 O   0  0  0  0  0  0  0  0  0  0  0  0
    2.8989    2.0811   22.0440 C   0  0  0  0  0  0  0  0  0  0  0  0
    4.3252    0.8043   21.8504 C   0  0  0  0  0  0  0  0  0  0  0  0
    5.7580    0.0264   21.0957 C   0  0  0  0  0  0  0  0  0  0  0  0
    6.4181   -1.3204   21.1718 C   0  0  0  0  0  0  0  0  0  0  0  0
    7.7885   -0.6002   20.5155 C   0  0  0  0  0  0  0  0  0  0  0  0
    7.6166    0.8578   20.4982 C   0  0  0  0  0  0  0  0  0  0  0  0
    6.8485    0.3326   19.4088 N   0  0  0  0  0  0  0  0  0  0  0  0
    7.8183    1.2545   18.1203 C   0  0  0  0  0  0  0  0  0  0  0  0
    7.7487    2.6134   17.8029 C   0  0  0  0  0  0  0  0  0  0  0  0
    8.7040    3.2342   16.8381 C   0  0  0  0  0  0  0  0  0  0  0  0
    9.6215    2.6308   16.1684 N   0  0  0  0  0  0  0  0  0  0  0  0
    9.5554    1.2828   16.2378 C   0  0  0  0  0  0  0  0  0  0  0  0
   10.3121    0.4097   15.6054 N   0  0  0  0  0  0  0  0  0  0  0  0
    9.5347   -0.6969   15.5094 C   0  0  0  0  0  0  0  0  0  0  0  0
    8.3733   -0.5106   16.2167 C   0  0  0  0  0  0  0  0  0  0  0  0
    8.5622    0.6120   16.9947 N   0  0  0  0  0  0  0  0  0  0  0  0
    2.3523    2.8624   23.3002 C   0  0  0  0  0  0  0  0  0  0  0  0
    1.6733    4.0714   23.0521 C   0  0  0  0  0  0  0  0  0  0  0  0
    0.9631    4.7473   24.0583 C   0  0  0  0  0  0  0  0  0  0  0  0
    0.9100    4.2347   25.3499 C   0  0  0  0  0  0  0  0  0  0  0  0
    1.5748    3.0529   25.6345 C   0  0  0  0  0  0  0  0  0  0  0  0
    2.2731    2.3836   24.6177 C   0  0  0  0  0  0  0  0  0  0  0  0
    3.5561    0.2907   21.4387 H   0  0  0  0  0  0  0  0  0  0  0  0
    4.6379    0.5232   22.7901 H   0  0  0  0  0  0  0  0  0  0  0  0
    5.0485   -0.6631   21.5262 H   0  0  0  0  0  0  0  0  0  0  0  0
    6.1529   -2.3358   20.7971 H   0  0  0  0  0  0  0  0  0  0  0  0
    5.8893   -1.5754   22.2177 H   0  0  0  0  0  0  0  0  0  0  0  0
    8.5947   -0.4214   21.1772 H   0  0  0  0  0  0  0  0  0  0  0  0
    8.1550   -0.9788   19.5542 H   0  0  0  0  0  0  0  0  0  0  0  0
    7.6197    1.7831   20.0260 H   0  0  0  0  0  0  0  0  0  0  0  0
    7.4473    1.4433   21.4071 H   0  0  0  0  0  0  0  0  0  0  0  0
    7.0912    3.3405   18.2423 H   0  0  0  0  0  0  0  0  0  0  0  0
    8.6399    4.3333   16.7727 H   0  0  0  0  0  0  0  0  0  0  0  0
    9.8076   -1.5265   14.8729 H   0  0  0  0  0  0  0  0  0  0  0  0
    7.4315   -1.0228   16.1694 H   0  0  0  0  0  0  0  0  0  0  0  0
    1.6616    4.4835   22.0429 H   0  0  0  0  0  0  0  0  0  0  0  0
    0.4412    5.6711   23.8176 H   0  0  0  0  0  0  0  0  0  0  0  0
    0.3552    4.7585   26.1243 H   0  0  0  0  0  0  0  0  0  0  0  0
    1.5425    2.6348   26.6376 H   0  0  0  0  0  0  0  0  0  0  0  0
    2.7347    1.4359   24.8739 H   0  0  0  0  0  0  0  0  0  0  0  0
  1  2  2  0
  2  3  1  0
  3  4  1  0
  4  5  1  0
  5  6  1  0
  6  7  1  0
  7  8  1  0
  8  9  1  0
  9 10  2  0
 10 11  1  0
 11 12  2  0
 12 13  1  0
 13 14  2  0
 14 15  1  0
 15 16  2  0
 16 17  1  0
  2 18  1  0
 18 19  2  0
 19 20  1  0
 20 21  2  0
 21 22  1  0
 22 23  2  0
  8  4  1  0
 17  9  1  0
 23 18  1  0
 17 13  1  0
  3 24  1  0
  3 25  1  0
  4 26  1  0
  5 27  1  0
  5 28  1  0
  6 29  1  0
  6 30  1  0
  7 31  1  0
  7 32  1  0
 10 33  1  0
 11 34  1  0
 15 35  1  0
 16 36  1  0
 19 37  1  0
 20 38  1  0
 21 39  1  0
 22 40  1  0
 23 41  1  0
M  END
>  <Energy>  (895) 
806.14695797093884

>  <compound_id>  (895) 
8788

>  <target_id>  (895) 
1

>  <reference_id>  (895) 
106

>  <inspiration_ids>  (895) 
[70, 106]

>  <energy_score>  (895) 
664.9696288102907

>  <distance_score>  (895) 
5.441830185540708

>  <path>  (895) 
/opt/xchem-fragalysis-2/maxwin/BulkDock/SCRATCH/511015/C8788-P106/C8788-P106.minimised.mol

>  <scratch_subdir>  (895) 
/opt/xchem-fragalysis-2/maxwin/BulkDock/SCRATCH/511015/C8788-P106

>  <fragmenstein_runtime>  (895) 
7.080471038818359

>  <fragmenstein_outcome>  (895) 
too moved

>  <fragmenstein_mode>  (895) 
expansion

>  <fragmenstein_error>  (895) 


$$$$
C8788-P70
     RDKit          3D

 41 44  0  0  0  0  0  0  0  0999 V2000
    2.5623    1.6949   21.2428 O   0  0  0  0  0  0  0  0  0  0  0  0
    3.5002    1.5486   22.0580 C   0  0  0  0  0  0  0  0  0  0  0  0
    5.2775    0.6860   21.6092 C   0  0  0  0  0  0  0  0  0  0  0  0
    7.2092    0.7840   20.5897 C   0  0  0  0  0  0  0  0  0  0  0  0
    7.6783   -0.4528   20.2071 C   0  0  0  0  0  0  0  0  0  0  0  0
    7.5743   -0.3950   18.7305 C   0  0  0  0  0  0  0  0  0  0  0  0
    8.0676    0.6707   17.8338 C   0  0  0  0  0  0  0  0  0  0  0  0
    7.5048    1.7730   18.8914 N   0  0  0  0  0  0  0  0  0  0  0  0
    7.5329    3.1426   18.0062 C   0  0  0  0  0  0  0  0  0  0  0  0
    6.8222    4.2829   18.2350 C   0  0  0  0  0  0  0  0  0  0  0  0
    7.0766    5.4993   17.4387 C   0  0  0  0  0  0  0  0  0  0  0  0
    7.9988    5.6782   16.5650 N   0  0  0  0  0  0  0  0  0  0  0  0
    8.7789    4.6045   16.3080 C   0  0  0  0  0  0  0  0  0  0  0  0
    9.8202    4.6134   15.5018 N   0  0  0  0  0  0  0  0  0  0  0  0
   10.2325    3.3369   15.4108 C   0  0  0  0  0  0  0  0  0  0  0  0
    9.4198    2.5272   16.1576 C   0  0  0  0  0  0  0  0  0  0  0  0
    8.5369    3.3269   16.8808 N   0  0  0  0  0  0  0  0  0  0  0  0
    2.9629    2.4583   23.3069 C   0  0  0  0  0  0  0  0  0  0  0  0
    2.7338    2.0184   24.6309 C   0  0  0  0  0  0  0  0  0  0  0  0
    2.0486    2.7890   25.5830 C   0  0  0  0  0  0  0  0  0  0  0  0
    1.5276    4.0212   25.2220 C   0  0  0  0  0  0  0  0  0  0  0  0
    1.7080    4.4825   23.9210 C   0  0  0  0  0  0  0  0  0  0  0  0
    2.4115    3.7129   22.9804 C   0  0  0  0  0  0  0  0  0  0  0  0
    5.8781    1.1479   22.3218 H   0  0  0  0  0  0  0  0  0  0  0  0
    4.9080   -0.3348   21.7822 H   0  0  0  0  0  0  0  0  0  0  0  0
    6.5201    0.1928   19.9733 H   0  0  0  0  0  0  0  0  0  0  0  0
    8.6350   -0.3488   20.5819 H   0  0  0  0  0  0  0  0  0  0  0  0
    7.1181   -1.2345   20.6813 H   0  0  0  0  0  0  0  0  0  0  0  0
    8.2561   -1.1250   18.7680 H   0  0  0  0  0  0  0  0  0  0  0  0
    6.5715   -0.6724   18.4155 H   0  0  0  0  0  0  0  0  0  0  0  0
    7.7230    0.5967   16.7846 H   0  0  0  0  0  0  0  0  0  0  0  0
    9.1335    0.7430   17.6920 H   0  0  0  0  0  0  0  0  0  0  0  0
    6.1001    4.4866   19.0109 H   0  0  0  0  0  0  0  0  0  0  0  0
    6.4023    6.3436   17.6632 H   0  0  0  0  0  0  0  0  0  0  0  0
   11.0463    3.0452   14.7599 H   0  0  0  0  0  0  0  0  0  0  0  0
    9.4362    1.4616   16.1022 H   0  0  0  0  0  0  0  0  0  0  0  0
    3.0862    1.0337   24.9374 H   0  0  0  0  0  0  0  0  0  0  0  0
    1.9104    2.4087   26.5919 H   0  0  0  0  0  0  0  0  0  0  0  0
    0.9810    4.6229   25.9439 H   0  0  0  0  0  0  0  0  0  0  0  0
    1.2896    5.4409   23.6215 H   0  0  0  0  0  0  0  0  0  0  0  0
    2.4936    4.0773   21.9566 H   0  0  0  0  0  0  0  0  0  0  0  0
  1  2  2  0
  2  3  1  0
  3  4  1  0
  4  5  1  0
  5  6  1  0
  6  7  1  0
  7  8  1  0
  8  9  1  0
  9 10  2  0
 10 11  1  0
 11 12  2  0
 12 13  1  0
 13 14  2  0
 14 15  1  0
 15 16  2  0
 16 17  1  0
  2 18  1  0
 18 19  2  0
 19 20  1  0
 20 21  2  0
 21 22  1  0
 22 23  2  0
  8  4  1  0
 17  9  1  0
 23 18  1  0
 17 13  1  0
  3 24  1  0
  3 25  1  0
  4 26  1  0
  5 27  1  0
  5 28  1  0
  6 29  1  0
  6 30  1  0
  7 31  1  0
  7 32  1  0
 10 33  1  0
 11 34  1  0
 15 35  1  0
 16 36  1  0
 19 37  1  0
 20 38  1  0
 21 39  1  0
 22 40  1  0
 23 41  1  0
M  END
>  <Energy>  (896) 
627.80037311736578

>  <compound_id>  (896) 
8788

>  <target_id>  (896) 
1

>  <reference_id>  (896) 
70

>  <inspiration_ids>  (896) 
[70, 106]

>  <energy_score>  (896) 
486.62304395671697

>  <distance_score>  (896) 
6.751584640990067

>  <path>  (896) 
/opt/xchem-fragalysis-2/maxwin/BulkDock/SCRATCH/511015/C8788-P70/C8788-P70.minimised.mol

>  <scratch_subdir>  (896) 
/opt/xchem-fragalysis-2/maxwin/BulkDock/SCRATCH/511015/C8788-P70

>  <fragmenstein_runtime>  (896) 
6.608610153198242

>  <fragmenstein_outcome>  (896) 
too moved

>  <fragmenstein_mode>  (896) 
expansion

>  <fragmenstein_error>  (896) 


$$$$
C8788-P106
     RDKit          3D

 41 44  0  0  0  0  0  0  0  0999 V2000
    2.2305    2.4076   21.0429 O   0  0  0  0  0  0  0  0  0  0  0  0
    2.8989    2.0811   22.0440 C   0  0  0  0  0  0  0  0  0  0  0  0
    4.3252    0.8043   21.8504 C   0  0  0  0  0  0  0  0  0  0  0  0
    5.7580    0.0264   21.0957 C   0  0  0  0  0  0  0  0  0  0  0  0
    6.4181   -1.3204   21.1718 C   0  0  0  0  0  0  0  0  0  0  0  0
    7.7885   -0.6002   20.5155 C   0  0  0  0  0  0  0  0  0  0  0  0
    7.6166    0.8578   20.4982 C   0  0  0  0  0  0  0  0  0  0  0  0
    6.8485    0.3326   19.4088 N   0  0  0  0  0  0  0  0  0  0  0  0
    7.8183    1.2545   18.1203 C   0  0  0  0  0  0  0  0  0  0  0  0
    7.7487    2.6134   17.8029 C   0  0  0  0  0  0  0  0  0  0  0  0
    8.7040    3.2342   16.8381 C   0  0  0  0  0  0  0  0  0  0  0  0
    9.6215    2.6308   16.1684 N   0  0  0  0  0  0  0  0  0  0  0  0
    9.5554    1.2828   16.2378 C   0  0  0  0  0  0  0  0  0  0  0  0
   10.3121    0.4097   15.6054 N   0  0  0  0  0  0  0  0  0  0  0  0
    9.5347   -0.6969   15.5094 C   0  0  0  0  0  0  0  0  0  0  0  0
    8.3733   -0.5106   16.2167 C   0  0  0  0  0  0  0  0  0  0  0  0
    8.5622    0.6120   16.9947 N   0  0  0  0  0  0  0  0  0  0  0  0
    2.3523    2.8624   23.3002 C   0  0  0  0  0  0  0  0  0  0  0  0
    1.6733    4.0714   23.0521 C   0  0  0  0  0  0  0  0  0  0  0  0
    0.9631    4.7473   24.0583 C   0  0  0  0  0  0  0  0  0  0  0  0
    0.9100    4.2347   25.3499 C   0  0  0  0  0  0  0  0  0  0  0  0
    1.5748    3.0529   25.6345 C   0  0  0  0  0  0  0  0  0  0  0  0
    2.2731    2.3836   24.6177 C   0  0  0  0  0  0  0  0  0  0  0  0
    3.5561    0.2907   21.4387 H   0  0  0  0  0  0  0  0  0  0  0  0
    4.6379    0.5232   22.7901 H   0  0  0  0  0  0  0  0  0  0  0  0
    5.0485   -0.6631   21.5262 H   0  0  0  0  0  0  0  0  0  0  0  0
    6.1529   -2.3358   20.7971 H   0  0  0  0  0  0  0  0  0  0  0  0
    5.8893   -1.5754   22.2177 H   0  0  0  0  0  0  0  0  0  0  0  0
    8.5947   -0.4214   21.1772 H   0  0  0  0  0  0  0  0  0  0  0  0
    8.1550   -0.9788   19.5542 H   0  0  0  0  0  0  0  0  0  0  0  0
    7.6197    1.7831   20.0260 H   0  0  0  0  0  0  0  0  0  0  0  0
    7.4473    1.4433   21.4071 H   0  0  0  0  0  0  0  0  0  0  0  0
    7.0912    3.3405   18.2423 H   0  0  0  0  0  0  0  0  0  0  0  0
    8.6399    4.3333   16.7727 H   0  0  0  0  0  0  0  0  0  0  0  0
    9.8076   -1.5265   14.8729 H   0  0  0  0  0  0  0  0  0  0  0  0
    7.4315   -1.0228   16.1694 H   0  0  0  0  0  0  0  0  0  0  0  0
    1.6616    4.4835   22.0429 H   0  0  0  0  0  0  0  0  0  0  0  0
    0.4412    5.6711   23.8176 H   0  0  0  0  0  0  0  0  0  0  0  0
    0.3552    4.7585   26.1243 H   0  0  0  0  0  0  0  0  0  0  0  0
    1.5425    2.6348   26.6376 H   0  0  0  0  0  0  0  0  0  0  0  0
    2.7347    1.4359   24.8739 H   0  0  0  0  0  0  0  0  0  0  0  0
  1  2  2  0
  2  3  1  0
  3  4  1  0
  4  5  1  0
  5  6  1  0
  6  7  1  0
  7  8  1  0
  8  9  1  0
  9 10  2  0
 10 11  1  0
 11 12  2  0
 12 13  1  0
 13 14  2  0
 14 15  1  0
 15 16  2  0
 16 17  1  0
  2 18  1  0
 18 19  2  0
 19 20  1  0
 20 21  2  0
 21 22  1  0
 22 23  2  0
  8  4  1  0
 17  9  1  0
 23 18  1  0
 17 13  1  0
  3 24  1  0
  3 25  1  0
  4 26  1  0
  5 27  1  0
  5 28  1  0
  6 29  1  0
  6 30  1  0
  7 31  1  0
  7 32  1  0
 10 33  1  0
 11 34  1  0
 15 35  1  0
 16 36  1  0
 19 37  1  0
 20 38  1  0
 21 39  1  0
 22 40  1  0
 23 41  1  0
M  END
>  <Energy>  (897) 
806.14695797093884

>  <compound_id>  (897) 
8788

>  <target_id>  (897) 
1

>  <reference_id>  (897) 
106

>  <inspiration_ids>  (897) 
[70, 106]

>  <energy_score>  (897) 
664.9696288102907

>  <distance_score>  (897) 
5.441830185540708

>  <path>  (897) 
/opt/xchem-fragalysis-2/maxwin/BulkDock/SCRATCH/511015/C8788-P106/C8788-P106.minimised.mol

>  <scratch_subdir>  (897) 
/opt/xchem-fragalysis-2/maxwin/BulkDock/SCRATCH/511015/C8788-P106

>  <fragmenstein_runtime>  (897) 
7.928161144256592

>  <fragmenstein_outcome>  (897) 
too moved

>  <fragmenstein_mode>  (897) 
expansion

>  <fragmenstein_error>  (897) 


$$$$
C8834-P70
     RDKit          3D

 44 47  0  0  0  0  0  0  0  0999 V2000
    4.0369   -2.5428   25.3180 C   0  0  0  0  0  0  0  0  0  0  0  0
    4.8276   -1.4490   24.7063 N   0  0  0  0  0  0  0  0  0  0  0  0
    4.8789   -1.6230   22.9895 C   0  0  0  0  0  0  0  0  0  0  0  0
    5.7985   -1.8249   21.2652 C   0  0  0  0  0  0  0  0  0  0  0  0
    5.2249   -2.8936   20.0771 C   0  0  0  0  0  0  0  0  0  0  0  0
    4.8450   -2.1575   18.3913 C   0  0  0  0  0  0  0  0  0  0  0  0
    5.7159   -1.0188   17.7426 C   0  0  0  0  0  0  0  0  0  0  0  0
    7.0270   -0.3961   18.6922 C   0  0  0  0  0  0  0  0  0  0  0  0
    8.2917    0.1442   17.6627 N   0  0  0  0  0  0  0  0  0  0  0  0
    8.3797   -0.3359   16.1919 C   0  0  0  0  0  0  0  0  0  0  0  0
    9.5352    0.4898   15.5972 C   0  0  0  0  0  0  0  0  0  0  0  0
    9.4911    1.8233   16.3147 C   0  0  0  0  0  0  0  0  0  0  0  0
    8.3034    1.6578   17.2546 C   0  0  0  0  0  0  0  0  0  0  0  0
    7.0054   -0.6996   20.3804 C   0  0  0  0  0  0  0  0  0  0  0  0
    4.4216   -0.3358   25.5499 C   0  0  0  0  0  0  0  0  0  0  0  0
    5.1825   -0.2399   26.8893 C   0  0  0  0  0  0  0  0  0  0  0  0
    4.7294    0.6026   27.8276 C   0  0  0  0  0  0  0  0  0  0  0  0
    3.6097    1.3663   27.5579 N   0  0  0  0  0  0  0  0  0  0  0  0
    2.9343    2.2676   28.3406 C   0  0  0  0  0  0  0  0  0  0  0  0
    1.8990    2.7235   27.5607 C   0  0  0  0  0  0  0  0  0  0  0  0
    1.9231    2.1259   26.3300 N   0  0  0  0  0  0  0  0  0  0  0  0
    2.9655    1.3101   26.3380 C   0  0  0  0  0  0  0  0  0  0  0  0
    3.3964    0.4587   25.3617 N   0  0  0  0  0  0  0  0  0  0  0  0
    3.0164   -2.2150   25.4837 H   0  0  0  0  0  0  0  0  0  0  0  0
    4.0100   -3.4443   24.7365 H   0  0  0  0  0  0  0  0  0  0  0  0
    4.4019   -2.7665   26.3255 H   0  0  0  0  0  0  0  0  0  0  0  0
    5.6278   -2.3044   23.2810 H   0  0  0  0  0  0  0  0  0  0  0  0
    3.9959   -2.2601   23.0061 H   0  0  0  0  0  0  0  0  0  0  0  0
    4.6473   -3.7273   20.3794 H   0  0  0  0  0  0  0  0  0  0  0  0
    5.8422   -2.2040   18.6831 H   0  0  0  0  0  0  0  0  0  0  0  0
    5.6992   -0.8117   16.6727 H   0  0  0  0  0  0  0  0  0  0  0  0
    7.4466   -0.1888   15.6668 H   0  0  0  0  0  0  0  0  0  0  0  0
    8.6591   -1.3631   16.0421 H   0  0  0  0  0  0  0  0  0  0  0  0
    9.4353    0.5936   14.5132 H   0  0  0  0  0  0  0  0  0  0  0  0
   10.4944   -0.0033   15.7940 H   0  0  0  0  0  0  0  0  0  0  0  0
    9.3299    2.6508   15.6162 H   0  0  0  0  0  0  0  0  0  0  0  0
   10.4276    2.0465   16.8241 H   0  0  0  0  0  0  0  0  0  0  0  0
    8.2321    2.3692   18.0537 H   0  0  0  0  0  0  0  0  0  0  0  0
    7.4870    1.9495   16.5893 H   0  0  0  0  0  0  0  0  0  0  0  0
    7.4430    0.2067   20.7374 H   0  0  0  0  0  0  0  0  0  0  0  0
    6.0375   -0.8911   27.0200 H   0  0  0  0  0  0  0  0  0  0  0  0
    5.1934    0.7091   28.7981 H   0  0  0  0  0  0  0  0  0  0  0  0
    3.2422    2.4999   29.3488 H   0  0  0  0  0  0  0  0  0  0  0  0
    1.1397    3.4512   27.8178 H   0  0  0  0  0  0  0  0  0  0  0  0
  1  2  1  0
  2  3  1  0
  3  4  1  0
  4  5  2  0
  5  6  1  0
  6  7  2  0
  7  8  1  0
  8  9  1  0
  9 10  1  0
 10 11  1  0
 11 12  1  0
 12 13  1  0
  8 14  2  0
  2 15  1  0
 15 16  1  0
 16 17  2  0
 17 18  1  0
 18 19  1  0
 19 20  2  0
 20 21  1  0
 21 22  2  0
 22 23  1  0
 14  4  1  0
 23 15  2  0
 13  9  1  0
 22 18  1  0
  1 24  1  0
  1 25  1  0
  1 26  1  0
  3 27  1  0
  3 28  1  0
  5 29  1  0
  6 30  1  0
  7 31  1  0
 10 32  1  0
 10 33  1  0
 11 34  1  0
 11 35  1  0
 12 36  1  0
 12 37  1  0
 13 38  1  0
 13 39  1  0
 14 40  1  0
 16 41  1  0
 17 42  1  0
 19 43  1  0
 20 44  1  0
M  END
>  <Energy>  (898) 
619.00746732327343

>  <compound_id>  (898) 
8834

>  <target_id>  (898) 
1

>  <reference_id>  (898) 
70

>  <inspiration_ids>  (898) 
[70, 106]

>  <energy_score>  (898) 
560.1332626905578

>  <distance_score>  (898) 
6.266179864102963

>  <path>  (898) 
/opt/xchem-fragalysis-2/maxwin/BulkDock/SCRATCH/511015/C8834-P70/C8834-P70.minimised.mol

>  <scratch_subdir>  (898) 
/opt/xchem-fragalysis-2/maxwin/BulkDock/SCRATCH/511015/C8834-P70

>  <fragmenstein_runtime>  (898) 
17.160781860351562

>  <fragmenstein_outcome>  (898) 
too moved

>  <fragmenstein_mode>  (898) 
expansion

>  <fragmenstein_error>  (898) 


$$$$
C8834-P106
     RDKit          3D

 44 47  0  0  0  0  0  0  0  0999 V2000
    5.8310   -1.3710   26.3767 C   0  0  0  0  0  0  0  0  0  0  0  0
    4.7263   -1.1892   25.3796 N   0  0  0  0  0  0  0  0  0  0  0  0
    4.8781   -2.1166   24.0016 C   0  0  0  0  0  0  0  0  0  0  0  0
    5.4683   -1.6308   22.2738 C   0  0  0  0  0  0  0  0  0  0  0  0
    4.9495   -0.4969   22.1569 C   0  0  0  0  0  0  0  0  0  0  0  0
    5.6971    0.1901   21.4051 C   0  0  0  0  0  0  0  0  0  0  0  0
    7.1894    0.2535   20.3341 C   0  0  0  0  0  0  0  0  0  0  0  0
    7.3697   -0.7039   19.5557 C   0  0  0  0  0  0  0  0  0  0  0  0
    8.0721   -0.2712   18.0733 N   0  0  0  0  0  0  0  0  0  0  0  0
    8.0806   -0.7366   16.4467 C   0  0  0  0  0  0  0  0  0  0  0  0
    9.3230   -0.0704   15.8207 C   0  0  0  0  0  0  0  0  0  0  0  0
    9.4748    1.2778   16.4758 C   0  0  0  0  0  0  0  0  0  0  0  0
    8.3391    1.2870   17.4863 C   0  0  0  0  0  0  0  0  0  0  0  0
    6.5973   -1.7599   20.8323 C   0  0  0  0  0  0  0  0  0  0  0  0
    3.5555   -0.9785   26.1456 C   0  0  0  0  0  0  0  0  0  0  0  0
    3.3994    0.4473   26.6732 C   0  0  0  0  0  0  0  0  0  0  0  0
    2.3464    0.7529   27.4339 C   0  0  0  0  0  0  0  0  0  0  0  0
    1.4831   -0.2603   27.7743 N   0  0  0  0  0  0  0  0  0  0  0  0
    0.3154   -0.2015   28.4860 C   0  0  0  0  0  0  0  0  0  0  0  0
   -0.0838   -1.5078   28.6075 C   0  0  0  0  0  0  0  0  0  0  0  0
    0.8125   -2.3529   28.0031 N   0  0  0  0  0  0  0  0  0  0  0  0
    1.7320   -1.5866   27.4365 C   0  0  0  0  0  0  0  0  0  0  0  0
    2.7843   -1.9308   26.6149 N   0  0  0  0  0  0  0  0  0  0  0  0
    5.5188   -2.0079   27.2137 H   0  0  0  0  0  0  0  0  0  0  0  0
    6.0702   -0.4015   26.8332 H   0  0  0  0  0  0  0  0  0  0  0  0
    6.7633   -1.7553   25.9601 H   0  0  0  0  0  0  0  0  0  0  0  0
    3.8943   -2.5733   23.8748 H   0  0  0  0  0  0  0  0  0  0  0  0
    5.7073   -2.7096   24.3308 H   0  0  0  0  0  0  0  0  0  0  0  0
    4.6029    0.2731   22.8004 H   0  0  0  0  0  0  0  0  0  0  0  0
    4.8448    0.8107   21.3131 H   0  0  0  0  0  0  0  0  0  0  0  0
    7.5431    1.2796   20.2444 H   0  0  0  0  0  0  0  0  0  0  0  0
    8.1796   -1.7772   16.1652 H   0  0  0  0  0  0  0  0  0  0  0  0
    7.1240   -0.4370   16.0366 H   0  0  0  0  0  0  0  0  0  0  0  0
    9.2162    0.0113   14.7349 H   0  0  0  0  0  0  0  0  0  0  0  0
   10.2158   -0.6766   16.0101 H   0  0  0  0  0  0  0  0  0  0  0  0
    9.3222    2.0719   15.7315 H   0  0  0  0  0  0  0  0  0  0  0  0
   10.4751    1.4695   16.8432 H   0  0  0  0  0  0  0  0  0  0  0  0
    7.6172    1.5775   16.7168 H   0  0  0  0  0  0  0  0  0  0  0  0
    8.1758    2.0999   18.1656 H   0  0  0  0  0  0  0  0  0  0  0  0
    6.1265   -2.7739   20.6481 H   0  0  0  0  0  0  0  0  0  0  0  0
    4.1864    1.1494   26.4833 H   0  0  0  0  0  0  0  0  0  0  0  0
    2.1616    1.7396   27.8339 H   0  0  0  0  0  0  0  0  0  0  0  0
   -0.1075    0.7276   28.8357 H   0  0  0  0  0  0  0  0  0  0  0  0
   -0.9637   -1.8958   29.1034 H   0  0  0  0  0  0  0  0  0  0  0  0
  1  2  1  0
  2  3  1  0
  3  4  1  0
  4  5  2  0
  5  6  1  0
  6  7  2  0
  7  8  1  0
  8  9  1  0
  9 10  1  0
 10 11  1  0
 11 12  1  0
 12 13  1  0
  8 14  2  0
  2 15  1  0
 15 16  1  0
 16 17  2  0
 17 18  1  0
 18 19  1  0
 19 20  2  0
 20 21  1  0
 21 22  2  0
 22 23  1  0
 14  4  1  0
 23 15  2  0
 13  9  1  0
 22 18  1  0
  1 24  1  0
  1 25  1  0
  1 26  1  0
  3 27  1  0
  3 28  1  0
  5 29  1  0
  6 30  1  0
  7 31  1  0
 10 32  1  0
 10 33  1  0
 11 34  1  0
 11 35  1  0
 12 36  1  0
 12 37  1  0
 13 38  1  0
 13 39  1  0
 14 40  1  0
 16 41  1  0
 17 42  1  0
 19 43  1  0
 20 44  1  0
M  END
>  <Energy>  (899) 
635.55075140415875

>  <compound_id>  (899) 
8834

>  <target_id>  (899) 
1

>  <reference_id>  (899) 
106

>  <inspiration_ids>  (899) 
[70, 106]

>  <energy_score>  (899) 
576.6765467714401

>  <distance_score>  (899) 
6.051336634686287

>  <path>  (899) 
/opt/xchem-fragalysis-2/maxwin/BulkDock/SCRATCH/511015/C8834-P106/C8834-P106.minimised.mol

>  <scratch_subdir>  (899) 
/opt/xchem-fragalysis-2/maxwin/BulkDock/SCRATCH/511015/C8834-P106

>  <fragmenstein_runtime>  (899) 
17.496651887893677

>  <fragmenstein_outcome>  (899) 
too moved

>  <fragmenstein_mode>  (899) 
expansion

>  <fragmenstein_error>  (899) 


$$$$
C12284-P68
     RDKit          3D

 40 42  0  0  0  0  0  0  0  0999 V2000
    4.3642  -22.7625   15.2920 O   0  0  0  0  0  0  0  0  0  0  0  0
    3.7827  -22.0274   16.0458 C   0  0  0  0  0  0  0  0  0  0  0  0
    3.8666  -20.5652   16.2124 N   0  0  0  0  0  0  0  0  0  0  0  0
    4.7741  -19.5497   15.5649 C   0  0  0  0  0  0  0  0  0  0  0  0
    4.5680  -17.9545   15.5957 C   0  0  0  0  0  0  0  0  0  0  0  0
    3.6558  -17.5852   16.6246 O   0  0  0  0  0  0  0  0  0  0  0  0
    5.9856  -17.1247   15.6946 C   0  0  0  0  0  0  0  0  0  0  0  0
    6.0612  -15.6021   15.8146 N   0  0  0  0  0  0  0  0  0  0  0  0
    7.4627  -15.0873   15.7772 C   0  0  0  0  0  0  0  0  0  0  0  0
    7.6027  -13.5738   15.8997 C   0  0  0  0  0  0  0  0  0  0  0  0
    8.6333  -12.8058   15.2301 C   0  0  0  0  0  0  0  0  0  0  0  0
    8.6325  -11.4696   15.5662 C   0  0  0  0  0  0  0  0  0  0  0  0
    7.3843  -11.1024   16.6684 S   0  0  0  0  0  0  0  0  0  0  0  0
    6.8629  -12.7338   16.7148 C   0  0  0  0  0  0  0  0  0  0  0  0
    2.8735  -22.8645   17.0193 C   0  0  0  0  0  0  0  0  0  0  0  0
    1.6810  -22.4323   17.5963 C   0  0  0  0  0  0  0  0  0  0  0  0
    0.9140  -23.2608   18.4701 C   0  0  0  0  0  0  0  0  0  0  0  0
    1.3799  -24.5415   18.8369 C   0  0  0  0  0  0  0  0  0  0  0  0
    0.8269  -25.6749   20.0403 S   0  0  0  0  0  0  0  0  0  0  0  0
    2.3081  -26.5110   19.9148 C   0  0  0  0  0  0  0  0  0  0  0  0
    3.0354  -26.2276   18.8558 N   0  0  0  0  0  0  0  0  0  0  0  0
    2.5631  -25.0329   18.2741 C   0  0  0  0  0  0  0  0  0  0  0  0
    3.2505  -24.2130   17.3214 C   0  0  0  0  0  0  0  0  0  0  0  0
    3.2932  -20.2876   17.0028 H   0  0  0  0  0  0  0  0  0  0  0  0
    4.8584  -19.8533   14.5138 H   0  0  0  0  0  0  0  0  0  0  0  0
    5.7638  -19.7674   15.9809 H   0  0  0  0  0  0  0  0  0  0  0  0
    4.1063  -17.6574   14.6456 H   0  0  0  0  0  0  0  0  0  0  0  0
    2.7621  -17.7986   16.2821 H   0  0  0  0  0  0  0  0  0  0  0  0
    6.5563  -17.4103   14.8018 H   0  0  0  0  0  0  0  0  0  0  0  0
    6.5267  -17.5203   16.5597 H   0  0  0  0  0  0  0  0  0  0  0  0
    5.5329  -15.1866   15.0487 H   0  0  0  0  0  0  0  0  0  0  0  0
    7.9281  -15.4068   14.8368 H   0  0  0  0  0  0  0  0  0  0  0  0
    8.0265  -15.5392   16.6022 H   0  0  0  0  0  0  0  0  0  0  0  0
    9.3544  -13.2330   14.5436 H   0  0  0  0  0  0  0  0  0  0  0  0
    9.3048  -10.7020   15.2114 H   0  0  0  0  0  0  0  0  0  0  0  0
    6.0352  -13.0146   17.3542 H   0  0  0  0  0  0  0  0  0  0  0  0
    1.3224  -21.4305   17.3779 H   0  0  0  0  0  0  0  0  0  0  0  0
    0.0371  -22.8477   18.9403 H   0  0  0  0  0  0  0  0  0  0  0  0
    2.6510  -27.2298   20.6380 H   0  0  0  0  0  0  0  0  0  0  0  0
    4.1718  -24.6118   16.9050 H   0  0  0  0  0  0  0  0  0  0  0  0
  1  2  2  0
  2  3  1  0
  3  4  1  0
  4  5  1  0
  5  6  1  0
  5  7  1  0
  7  8  1  0
  8  9  1  0
  9 10  1  0
 10 11  1  0
 11 12  2  0
 12 13  1  0
 13 14  1  0
  2 15  1  0
 15 16  2  0
 16 17  1  0
 17 18  2  0
 18 19  1  0
 19 20  1  0
 20 21  2  0
 21 22  1  0
 22 23  2  0
 14 10  2  0
 23 15  1  0
 22 18  1  0
  3 24  1  0
  4 25  1  0
  4 26  1  0
  5 27  1  0
  6 28  1  0
  7 29  1  0
  7 30  1  0
  8 31  1  0
  9 32  1  0
  9 33  1  0
 11 34  1  0
 12 35  1  0
 14 36  1  0
 16 37  1  0
 17 38  1  0
 20 39  1  0
 23 40  1  0
M  END
>  <Energy>  (900) 
89.965652223583135

>  <compound_id>  (900) 
12284

>  <target_id>  (900) 
1

>  <reference_id>  (900) 
68

>  <inspiration_ids>  (900) 
[68, 20]

>  <energy_score>  (900) 
-57.419081577556085

>  <distance_score>  (900) 
15.079335560734409

>  <path>  (900) 
/opt/xchem-fragalysis-2/maxwin/BulkDock/SCRATCH/511015/C12284-P68/C12284-P68.minimised.mol

>  <scratch_subdir>  (900) 
/opt/xchem-fragalysis-2/maxwin/BulkDock/SCRATCH/511015/C12284-P68

>  <fragmenstein_runtime>  (900) 
23.99937105178833

>  <fragmenstein_outcome>  (900) 
too moved

>  <fragmenstein_mode>  (900) 
expansion

>  <fragmenstein_error>  (900) 


$$$$
C12284-P20
     RDKit          3D

 40 42  0  0  0  0  0  0  0  0999 V2000
    0.4587  -23.2194   22.0984 O   0  0  0  0  0  0  0  0  0  0  0  0
    0.6659  -23.5450   20.9796 C   0  0  0  0  0  0  0  0  0  0  0  0
    1.2302  -22.8225   19.9098 N   0  0  0  0  0  0  0  0  0  0  0  0
    2.0407  -21.0540   19.8216 C   0  0  0  0  0  0  0  0  0  0  0  0
    2.7811  -19.7132   20.6385 C   0  0  0  0  0  0  0  0  0  0  0  0
    2.0091  -19.8377   21.6998 O   0  0  0  0  0  0  0  0  0  0  0  0
    4.6510  -19.0656   21.1948 C   0  0  0  0  0  0  0  0  0  0  0  0
    6.0955  -18.2214   20.4640 N   0  0  0  0  0  0  0  0  0  0  0  0
    7.3780  -17.7463   21.0391 C   0  0  0  0  0  0  0  0  0  0  0  0
    7.8957  -16.3962   20.3966 C   0  0  0  0  0  0  0  0  0  0  0  0
    7.5449  -15.8196   19.1132 C   0  0  0  0  0  0  0  0  0  0  0  0
    8.1286  -14.5913   18.8605 C   0  0  0  0  0  0  0  0  0  0  0  0
    9.1371  -14.0983   20.1416 S   0  0  0  0  0  0  0  0  0  0  0  0
    8.7888  -15.5312   21.0260 C   0  0  0  0  0  0  0  0  0  0  0  0
    0.3647  -25.3199   20.4887 C   0  0  0  0  0  0  0  0  0  0  0  0
   -0.6188  -26.2566   20.9987 C   0  0  0  0  0  0  0  0  0  0  0  0
   -0.5946  -27.6697   21.1183 C   0  0  0  0  0  0  0  0  0  0  0  0
    0.5332  -28.3023   20.6697 C   0  0  0  0  0  0  0  0  0  0  0  0
    0.8705  -29.9852   20.6336 S   0  0  0  0  0  0  0  0  0  0  0  0
    2.3899  -29.6190   19.9506 C   0  0  0  0  0  0  0  0  0  0  0  0
    2.6564  -28.3445   19.7460 N   0  0  0  0  0  0  0  0  0  0  0  0
    1.5884  -27.5519   20.1502 C   0  0  0  0  0  0  0  0  0  0  0  0
    1.4855  -26.0887   20.0694 C   0  0  0  0  0  0  0  0  0  0  0  0
    1.3347  -23.4439   19.1105 H   0  0  0  0  0  0  0  0  0  0  0  0
    3.1244  -21.1140   19.5571 H   0  0  0  0  0  0  0  0  0  0  0  0
    1.8579  -20.7898   18.7506 H   0  0  0  0  0  0  0  0  0  0  0  0
    2.4851  -19.4023   19.6648 H   0  0  0  0  0  0  0  0  0  0  0  0
    1.3913  -19.0974   21.7030 H   0  0  0  0  0  0  0  0  0  0  0  0
    4.3732  -19.2724   22.2516 H   0  0  0  0  0  0  0  0  0  0  0  0
    4.9976  -18.2482   21.8076 H   0  0  0  0  0  0  0  0  0  0  0  0
    5.6586  -17.4309   19.9974 H   0  0  0  0  0  0  0  0  0  0  0  0
    8.1401  -18.5066   20.8330 H   0  0  0  0  0  0  0  0  0  0  0  0
    7.3327  -17.6265   22.1248 H   0  0  0  0  0  0  0  0  0  0  0  0
    6.8628  -16.2840   18.4127 H   0  0  0  0  0  0  0  0  0  0  0  0
    8.0012  -13.9671   17.9867 H   0  0  0  0  0  0  0  0  0  0  0  0
    9.2530  -15.6658   21.9934 H   0  0  0  0  0  0  0  0  0  0  0  0
   -1.5364  -25.9334   21.4578 H   0  0  0  0  0  0  0  0  0  0  0  0
   -1.4065  -28.2109   21.5911 H   0  0  0  0  0  0  0  0  0  0  0  0
    3.0990  -30.3966   19.6996 H   0  0  0  0  0  0  0  0  0  0  0  0
    2.3735  -25.5968   19.6875 H   0  0  0  0  0  0  0  0  0  0  0  0
  1  2  2  0
  2  3  1  0
  3  4  1  0
  4  5  1  0
  5  6  1  0
  5  7  1  0
  7  8  1  0
  8  9  1  0
  9 10  1  0
 10 11  1  0
 11 12  2  0
 12 13  1  0
 13 14  1  0
  2 15  1  0
 15 16  2  0
 16 17  1  0
 17 18  2  0
 18 19  1  0
 19 20  1  0
 20 21  2  0
 21 22  1  0
 22 23  2  0
 14 10  2  0
 23 15  1  0
 22 18  1  0
  3 24  1  0
  4 25  1  0
  4 26  1  0
  5 27  1  0
  6 28  1  0
  7 29  1  0
  7 30  1  0
  8 31  1  0
  9 32  1  0
  9 33  1  0
 11 34  1  0
 12 35  1  0
 14 36  1  0
 16 37  1  0
 17 38  1  0
 20 39  1  0
 23 40  1  0
M  END
>  <Energy>  (901) 
501.58124664019363

>  <compound_id>  (901) 
12284

>  <target_id>  (901) 
1

>  <reference_id>  (901) 
20

>  <inspiration_ids>  (901) 
[68, 20]

>  <energy_score>  (901) 
354.19651283905966

>  <distance_score>  (901) 
14.204687690554126

>  <path>  (901) 
/opt/xchem-fragalysis-2/maxwin/BulkDock/SCRATCH/511015/C12284-P20/C12284-P20.minimised.mol

>  <scratch_subdir>  (901) 
/opt/xchem-fragalysis-2/maxwin/BulkDock/SCRATCH/511015/C12284-P20

>  <fragmenstein_runtime>  (901) 
13.202321767807007

>  <fragmenstein_outcome>  (901) 
too moved

>  <fragmenstein_mode>  (901) 
expansion

>  <fragmenstein_error>  (901) 


$$$$
C12285-P68
     RDKit          3D

 36 38  0  0  0  0  0  0  0  0999 V2000
    4.5666  -17.8161   13.9091 C   0  0  0  0  0  0  0  0  0  0  0  0
    5.3687  -18.2980   15.1165 C   0  0  0  0  0  0  0  0  0  0  0  0
    5.8309  -17.0559   16.0209 C   0  0  0  0  0  0  0  0  0  0  0  0
    6.4406  -15.7539   15.4380 C   0  0  0  0  0  0  0  0  0  0  0  0
    7.8475  -15.4911   15.2265 C   0  0  0  0  0  0  0  0  0  0  0  0
    8.1232  -14.1892   14.8494 C   0  0  0  0  0  0  0  0  0  0  0  0
    6.7066  -13.2452   14.7467 S   0  0  0  0  0  0  0  0  0  0  0  0
    5.7293  -14.5838   15.1979 C   0  0  0  0  0  0  0  0  0  0  0  0
    4.5406  -19.4174   15.7936 N   0  0  0  0  0  0  0  0  0  0  0  0
    4.8379  -20.9527   15.9638 C   0  0  0  0  0  0  0  0  0  0  0  0
    5.8075  -21.5559   15.6725 O   0  0  0  0  0  0  0  0  0  0  0  0
    3.5250  -21.4376   16.5949 N   0  0  0  0  0  0  0  0  0  0  0  0
    3.1546  -22.7072   17.0817 C   0  0  0  0  0  0  0  0  0  0  0  0
    3.7960  -23.8637   17.1505 N   0  0  0  0  0  0  0  0  0  0  0  0
    3.0866  -24.7961   17.9663 C   0  0  0  0  0  0  0  0  0  0  0  0
    3.5825  -26.0110   18.5455 C   0  0  0  0  0  0  0  0  0  0  0  0
    2.8749  -26.6772   19.5863 C   0  0  0  0  0  0  0  0  0  0  0  0
    1.6065  -26.2371   19.9584 C   0  0  0  0  0  0  0  0  0  0  0  0
    1.0581  -25.1207   19.3124 C   0  0  0  0  0  0  0  0  0  0  0  0
    1.8240  -24.3690   18.3837 C   0  0  0  0  0  0  0  0  0  0  0  0
    1.5544  -22.7783   17.7459 S   0  0  0  0  0  0  0  0  0  0  0  0
    3.6502  -17.3068   14.2266 H   0  0  0  0  0  0  0  0  0  0  0  0
    5.1497  -17.1274   13.2903 H   0  0  0  0  0  0  0  0  0  0  0  0
    4.2720  -18.6610   13.2766 H   0  0  0  0  0  0  0  0  0  0  0  0
    6.2755  -18.7948   14.7513 H   0  0  0  0  0  0  0  0  0  0  0  0
    6.5763  -17.4449   16.7248 H   0  0  0  0  0  0  0  0  0  0  0  0
    4.9572  -16.7512   16.6124 H   0  0  0  0  0  0  0  0  0  0  0  0
    8.6265  -16.2309   15.3702 H   0  0  0  0  0  0  0  0  0  0  0  0
    9.0887  -13.7507   14.6372 H   0  0  0  0  0  0  0  0  0  0  0  0
    4.6622  -14.4353   15.2940 H   0  0  0  0  0  0  0  0  0  0  0  0
    3.6520  -19.2004   16.2171 H   0  0  0  0  0  0  0  0  0  0  0  0
    2.8732  -20.6775   16.6351 H   0  0  0  0  0  0  0  0  0  0  0  0
    4.5739  -26.3456   18.2592 H   0  0  0  0  0  0  0  0  0  0  0  0
    3.3370  -27.5320   20.0717 H   0  0  0  0  0  0  0  0  0  0  0  0
    1.0422  -26.7261   20.7443 H   0  0  0  0  0  0  0  0  0  0  0  0
    0.0920  -24.7710   19.6014 H   0  0  0  0  0  0  0  0  0  0  0  0
  1  2  1  0
  2  3  1  0
  3  4  1  0
  4  5  1  0
  5  6  2  0
  6  7  1  0
  7  8  1  0
  2  9  1  0
  9 10  1  0
 10 11  2  0
 10 12  1  0
 12 13  1  0
 13 14  2  0
 14 15  1  0
 15 16  2  0
 16 17  1  0
 17 18  2  0
 18 19  1  0
 19 20  2  0
 20 21  1  0
  8  4  2  0
 21 13  1  0
 20 15  1  0
  1 22  1  0
  1 23  1  0
  1 24  1  0
  2 25  1  0
  3 26  1  0
  3 27  1  0
  5 28  1  0
  6 29  1  0
  8 30  1  0
  9 31  1  0
 12 32  1  0
 16 33  1  0
 17 34  1  0
 18 35  1  0
 19 36  1  0
M  END
>  <Energy>  (902) 
-6.9624694677604406

>  <compound_id>  (902) 
12285

>  <target_id>  (902) 
1

>  <reference_id>  (902) 
68

>  <inspiration_ids>  (902) 
[68, 20]

>  <energy_score>  (902) 
-47.83270375228153

>  <distance_score>  (902) 
15.945576620880123

>  <path>  (902) 
/opt/xchem-fragalysis-2/maxwin/BulkDock/SCRATCH/511015/C12285-P68/C12285-P68.minimised.mol

>  <scratch_subdir>  (902) 
/opt/xchem-fragalysis-2/maxwin/BulkDock/SCRATCH/511015/C12285-P68

>  <fragmenstein_runtime>  (902) 
17.768715620040894

>  <fragmenstein_outcome>  (902) 
too moved

>  <fragmenstein_mode>  (902) 
expansion

>  <fragmenstein_error>  (902) 


$$$$
C12285-P20
     RDKit          3D

 36 38  0  0  0  0  0  0  0  0999 V2000
   -0.5008  -16.8000   17.4633 C   0  0  0  0  0  0  0  0  0  0  0  0
   -1.3327  -16.0481   18.5055 C   0  0  0  0  0  0  0  0  0  0  0  0
   -0.3719  -15.0849   19.3798 C   0  0  0  0  0  0  0  0  0  0  0  0
    0.5766  -14.0331   18.6953 C   0  0  0  0  0  0  0  0  0  0  0  0
    1.8696  -13.6193   19.2260 C   0  0  0  0  0  0  0  0  0  0  0  0
    2.5056  -12.6408   18.4855 C   0  0  0  0  0  0  0  0  0  0  0  0
    1.5706  -12.1730   17.1403 S   0  0  0  0  0  0  0  0  0  0  0  0
    0.3182  -13.2804   17.5585 C   0  0  0  0  0  0  0  0  0  0  0  0
   -2.2674  -17.0793   19.2089 N   0  0  0  0  0  0  0  0  0  0  0  0
   -3.4812  -17.9316   18.6397 C   0  0  0  0  0  0  0  0  0  0  0  0
   -3.9677  -17.8867   17.5695 O   0  0  0  0  0  0  0  0  0  0  0  0
   -3.8245  -18.8430   19.8407 N   0  0  0  0  0  0  0  0  0  0  0  0
   -4.7412  -19.9229   19.9507 C   0  0  0  0  0  0  0  0  0  0  0  0
   -5.1676  -20.5007   21.0704 N   0  0  0  0  0  0  0  0  0  0  0  0
   -5.9860  -21.6433   20.8171 C   0  0  0  0  0  0  0  0  0  0  0  0
   -6.6219  -22.4989   21.7647 C   0  0  0  0  0  0  0  0  0  0  0  0
   -7.2370  -23.6994   21.3676 C   0  0  0  0  0  0  0  0  0  0  0  0
   -7.2659  -24.0499   20.0249 C   0  0  0  0  0  0  0  0  0  0  0  0
   -6.7079  -23.1970   19.0594 C   0  0  0  0  0  0  0  0  0  0  0  0
   -6.0784  -21.9961   19.4739 C   0  0  0  0  0  0  0  0  0  0  0  0
   -5.3390  -20.7282   18.5413 S   0  0  0  0  0  0  0  0  0  0  0  0
   -1.1456  -17.3671   16.7856 H   0  0  0  0  0  0  0  0  0  0  0  0
    0.1865  -17.5031   17.9402 H   0  0  0  0  0  0  0  0  0  0  0  0
    0.0897  -16.1180   16.8454 H   0  0  0  0  0  0  0  0  0  0  0  0
   -2.0284  -15.4007   17.9572 H   0  0  0  0  0  0  0  0  0  0  0  0
    0.2373  -15.7285   20.0226 H   0  0  0  0  0  0  0  0  0  0  0  0
   -1.0236  -14.5177   20.0580 H   0  0  0  0  0  0  0  0  0  0  0  0
    2.3066  -14.0325   20.1262 H   0  0  0  0  0  0  0  0  0  0  0  0
    3.4662  -12.1827   18.6767 H   0  0  0  0  0  0  0  0  0  0  0  0
   -0.5642  -13.3178   16.9336 H   0  0  0  0  0  0  0  0  0  0  0  0
   -2.0325  -17.4089   20.1324 H   0  0  0  0  0  0  0  0  0  0  0  0
   -3.2750  -18.5697   20.6343 H   0  0  0  0  0  0  0  0  0  0  0  0
   -6.5952  -22.2318   22.8165 H   0  0  0  0  0  0  0  0  0  0  0  0
   -7.6835  -24.3519   22.1141 H   0  0  0  0  0  0  0  0  0  0  0  0
   -7.7383  -24.9798   19.7159 H   0  0  0  0  0  0  0  0  0  0  0  0
   -6.7563  -23.4533   18.0046 H   0  0  0  0  0  0  0  0  0  0  0  0
  1  2  1  0
  2  3  1  0
  3  4  1  0
  4  5  1  0
  5  6  2  0
  6  7  1  0
  7  8  1  0
  2  9  1  0
  9 10  1  0
 10 11  2  0
 10 12  1  0
 12 13  1  0
 13 14  2  0
 14 15  1  0
 15 16  2  0
 16 17  1  0
 17 18  2  0
 18 19  1  0
 19 20  2  0
 20 21  1  0
  8  4  2  0
 21 13  1  0
 20 15  1  0
  1 22  1  0
  1 23  1  0
  1 24  1  0
  2 25  1  0
  3 26  1  0
  3 27  1  0
  5 28  1  0
  6 29  1  0
  8 30  1  0
  9 31  1  0
 12 32  1  0
 16 33  1  0
 17 34  1  0
 18 35  1  0
 19 36  1  0
M  END
>  <Energy>  (903) 
-8.2397290044438254

>  <compound_id>  (903) 
12285

>  <target_id>  (903) 
1

>  <reference_id>  (903) 
20

>  <inspiration_ids>  (903) 
[68, 20]

>  <energy_score>  (903) 
-49.10996328896451

>  <distance_score>  (903) 
15.797060834575944

>  <path>  (903) 
/opt/xchem-fragalysis-2/maxwin/BulkDock/SCRATCH/511015/C12285-P20/C12285-P20.minimised.mol

>  <scratch_subdir>  (903) 
/opt/xchem-fragalysis-2/maxwin/BulkDock/SCRATCH/511015/C12285-P20

>  <fragmenstein_runtime>  (903) 
11.810008525848389

>  <fragmenstein_outcome>  (903) 
too moved

>  <fragmenstein_mode>  (903) 
expansion

>  <fragmenstein_error>  (903) 


$$$$
C12286-P68
     RDKit          3D

 38 40  0  0  0  0  0  0  0  0999 V2000
   -0.5511  -30.7982   21.2464 C   0  0  0  0  0  0  0  0  0  0  0  0
   -0.3461  -29.6007   20.3920 C   0  0  0  0  0  0  0  0  0  0  0  0
   -1.3006  -28.9053   19.8125 N   0  0  0  0  0  0  0  0  0  0  0  0
   -0.7446  -27.8162   19.1436 C   0  0  0  0  0  0  0  0  0  0  0  0
   -1.4408  -26.8476   18.3998 C   0  0  0  0  0  0  0  0  0  0  0  0
   -0.7340  -25.7634   17.8174 C   0  0  0  0  0  0  0  0  0  0  0  0
    0.6660  -25.5549   17.9845 C   0  0  0  0  0  0  0  0  0  0  0  0
    1.3317  -24.3094   17.3027 N   0  0  0  0  0  0  0  0  0  0  0  0
    0.8236  -23.6235   18.5818 C   0  0  0  0  0  0  0  0  0  0  0  0
    2.7607  -23.9776   17.0758 C   0  0  0  0  0  0  0  0  0  0  0  0
    3.7636  -24.5437   17.4389 O   0  0  0  0  0  0  0  0  0  0  0  0
    2.8007  -22.6543   16.1319 C   0  0  0  0  0  0  0  0  0  0  0  0
    3.5903  -21.3929   16.1483 N   0  0  0  0  0  0  0  0  0  0  0  0
    4.7751  -21.0065   15.4161 C   0  0  0  0  0  0  0  0  0  0  0  0
    5.4692  -21.6333   14.6698 O   0  0  0  0  0  0  0  0  0  0  0  0
    5.1460  -19.5248   15.5335 C   0  0  0  0  0  0  0  0  0  0  0  0
    6.4976  -18.9833   15.3683 C   0  0  0  0  0  0  0  0  0  0  0  0
    6.5806  -17.6039   15.4102 C   0  0  0  0  0  0  0  0  0  0  0  0
    5.0422  -16.8958   15.6018 S   0  0  0  0  0  0  0  0  0  0  0  0
    4.2729  -18.4455   15.6382 C   0  0  0  0  0  0  0  0  0  0  0  0
    1.3649  -26.5859   18.6402 C   0  0  0  0  0  0  0  0  0  0  0  0
    0.6455  -27.6829   19.2268 C   0  0  0  0  0  0  0  0  0  0  0  0
    1.2507  -29.0292   20.1254 S   0  0  0  0  0  0  0  0  0  0  0  0
   -0.4072  -31.7090   20.6593 H   0  0  0  0  0  0  0  0  0  0  0  0
    0.1492  -30.8186   22.0881 H   0  0  0  0  0  0  0  0  0  0  0  0
   -1.5587  -30.7825   21.6684 H   0  0  0  0  0  0  0  0  0  0  0  0
   -2.5165  -26.9279   18.2851 H   0  0  0  0  0  0  0  0  0  0  0  0
   -1.3075  -25.0392   17.2403 H   0  0  0  0  0  0  0  0  0  0  0  0
    1.0839  -24.0837   19.5453 H   0  0  0  0  0  0  0  0  0  0  0  0
    1.3365  -22.6505   18.6178 H   0  0  0  0  0  0  0  0  0  0  0  0
   -0.2264  -23.3555   18.4508 H   0  0  0  0  0  0  0  0  0  0  0  0
    2.9599  -23.0676   15.1271 H   0  0  0  0  0  0  0  0  0  0  0  0
    1.7813  -22.2585   16.1472 H   0  0  0  0  0  0  0  0  0  0  0  0
    3.2139  -20.5802   16.6200 H   0  0  0  0  0  0  0  0  0  0  0  0
    7.3584  -19.6202   15.1983 H   0  0  0  0  0  0  0  0  0  0  0  0
    7.4638  -16.9894   15.3060 H   0  0  0  0  0  0  0  0  0  0  0  0
    3.1905  -18.4740   15.6780 H   0  0  0  0  0  0  0  0  0  0  0  0
    2.4456  -26.5268   18.7481 H   0  0  0  0  0  0  0  0  0  0  0  0
  1  2  1  0
  2  3  2  0
  3  4  1  0
  4  5  2  0
  5  6  1  0
  6  7  2  0
  7  8  1  0
  8  9  1  0
  8 10  1  0
 10 11  2  0
 10 12  1  0
 12 13  1  0
 13 14  1  0
 14 15  2  0
 14 16  1  0
 16 17  1  0
 17 18  2  0
 18 19  1  0
 19 20  1  0
  7 21  1  0
 21 22  2  0
 22 23  1  0
 23  2  1  0
 22  4  1  0
 20 16  2  0
  1 24  1  0
  1 25  1  0
  1 26  1  0
  5 27  1  0
  6 28  1  0
  9 29  1  0
  9 30  1  0
  9 31  1  0
 12 32  1  0
 12 33  1  0
 13 34  1  0
 17 35  1  0
 18 36  1  0
 20 37  1  0
 21 38  1  0
M  END
>  <Energy>  (904) 
127.69452864847234

>  <compound_id>  (904) 
12286

>  <target_id>  (904) 
1

>  <reference_id>  (904) 
68

>  <inspiration_ids>  (904) 
[68, 20]

>  <energy_score>  (904) 
-8.030319887832889

>  <distance_score>  (904) 
16.248434573070327

>  <path>  (904) 
/opt/xchem-fragalysis-2/maxwin/BulkDock/SCRATCH/511015/C12286-P68/C12286-P68.minimised.mol

>  <scratch_subdir>  (904) 
/opt/xchem-fragalysis-2/maxwin/BulkDock/SCRATCH/511015/C12286-P68

>  <fragmenstein_runtime>  (904) 
17.187552213668823

>  <fragmenstein_outcome>  (904) 
too moved

>  <fragmenstein_mode>  (904) 
expansion

>  <fragmenstein_error>  (904) 


$$$$
C12286-P20
     RDKit          3D

 38 40  0  0  0  0  0  0  0  0999 V2000
   -6.5200  -31.8180   22.4464 C   0  0  0  0  0  0  0  0  0  0  0  0
   -6.4293  -30.3520   22.2152 C   0  0  0  0  0  0  0  0  0  0  0  0
   -6.8787  -29.4324   23.0426 N   0  0  0  0  0  0  0  0  0  0  0  0
   -6.6754  -28.1706   22.5053 C   0  0  0  0  0  0  0  0  0  0  0  0
   -7.0025  -26.9353   23.1092 C   0  0  0  0  0  0  0  0  0  0  0  0
   -6.7470  -25.7081   22.4482 C   0  0  0  0  0  0  0  0  0  0  0  0
   -6.2300  -25.6770   21.1455 C   0  0  0  0  0  0  0  0  0  0  0  0
   -5.9050  -24.3933   20.3850 N   0  0  0  0  0  0  0  0  0  0  0  0
   -7.3615  -24.6151   19.8587 C   0  0  0  0  0  0  0  0  0  0  0  0
   -5.7375  -23.0079   20.8633 C   0  0  0  0  0  0  0  0  0  0  0  0
   -5.9023  -22.5325   21.9607 O   0  0  0  0  0  0  0  0  0  0  0  0
   -5.2609  -22.1143   19.6420 C   0  0  0  0  0  0  0  0  0  0  0  0
   -4.8819  -20.6765   19.6842 N   0  0  0  0  0  0  0  0  0  0  0  0
   -5.4148  -19.5346   18.9732 C   0  0  0  0  0  0  0  0  0  0  0  0
   -6.3477  -19.4465   18.2318 O   0  0  0  0  0  0  0  0  0  0  0  0
   -4.6088  -18.2427   19.0930 C   0  0  0  0  0  0  0  0  0  0  0  0
   -4.9931  -16.9983   18.4079 C   0  0  0  0  0  0  0  0  0  0  0  0
   -4.1251  -15.9393   18.5617 C   0  0  0  0  0  0  0  0  0  0  0  0
   -2.7877  -16.4155   19.4740 S   0  0  0  0  0  0  0  0  0  0  0  0
   -3.3877  -18.0100   19.7074 C   0  0  0  0  0  0  0  0  0  0  0  0
   -5.8348  -26.9170   20.5661 C   0  0  0  0  0  0  0  0  0  0  0  0
   -6.0676  -28.1389   21.2506 C   0  0  0  0  0  0  0  0  0  0  0  0
   -5.6742  -29.7558   20.7905 S   0  0  0  0  0  0  0  0  0  0  0  0
   -5.5222  -32.2650   22.4860 H   0  0  0  0  0  0  0  0  0  0  0  0
   -7.0903  -32.3027   21.6476 H   0  0  0  0  0  0  0  0  0  0  0  0
   -7.0262  -32.0279   23.3930 H   0  0  0  0  0  0  0  0  0  0  0  0
   -7.4401  -26.9399   24.1031 H   0  0  0  0  0  0  0  0  0  0  0  0
   -6.9862  -24.7791   22.9623 H   0  0  0  0  0  0  0  0  0  0  0  0
   -7.5029  -25.5298   19.2648 H   0  0  0  0  0  0  0  0  0  0  0  0
   -7.5257  -23.8048   19.1355 H   0  0  0  0  0  0  0  0  0  0  0  0
   -8.1315  -24.4377   20.6250 H   0  0  0  0  0  0  0  0  0  0  0  0
   -6.0442  -22.1778   18.8793 H   0  0  0  0  0  0  0  0  0  0  0  0
   -4.3748  -22.6168   19.2365 H   0  0  0  0  0  0  0  0  0  0  0  0
   -4.1336  -20.3689   20.2879 H   0  0  0  0  0  0  0  0  0  0  0  0
   -5.9074  -16.9184   17.8279 H   0  0  0  0  0  0  0  0  0  0  0  0
   -4.2186  -14.9381   18.1627 H   0  0  0  0  0  0  0  0  0  0  0  0
   -2.7837  -18.6891   20.2876 H   0  0  0  0  0  0  0  0  0  0  0  0
   -5.3436  -26.9326   19.5963 H   0  0  0  0  0  0  0  0  0  0  0  0
  1  2  1  0
  2  3  2  0
  3  4  1  0
  4  5  2  0
  5  6  1  0
  6  7  2  0
  7  8  1  0
  8  9  1  0
  8 10  1  0
 10 11  2  0
 10 12  1  0
 12 13  1  0
 13 14  1  0
 14 15  2  0
 14 16  1  0
 16 17  1  0
 17 18  2  0
 18 19  1  0
 19 20  1  0
  7 21  1  0
 21 22  2  0
 22 23  1  0
 23  2  1  0
 22  4  1  0
 20 16  2  0
  1 24  1  0
  1 25  1  0
  1 26  1  0
  5 27  1  0
  6 28  1  0
  9 29  1  0
  9 30  1  0
  9 31  1  0
 12 32  1  0
 12 33  1  0
 13 34  1  0
 17 35  1  0
 18 36  1  0
 20 37  1  0
 21 38  1  0
M  END
>  <Energy>  (905) 
113.93683699841669

>  <compound_id>  (905) 
12286

>  <target_id>  (905) 
1

>  <reference_id>  (905) 
20

>  <inspiration_ids>  (905) 
[68, 20]

>  <energy_score>  (905) 
-21.788011537884472

>  <distance_score>  (905) 
16.849747518120644

>  <path>  (905) 
/opt/xchem-fragalysis-2/maxwin/BulkDock/SCRATCH/511015/C12286-P20/C12286-P20.minimised.mol

>  <scratch_subdir>  (905) 
/opt/xchem-fragalysis-2/maxwin/BulkDock/SCRATCH/511015/C12286-P20

>  <fragmenstein_runtime>  (905) 
16.648259162902832

>  <fragmenstein_outcome>  (905) 
too moved

>  <fragmenstein_mode>  (905) 
expansion

>  <fragmenstein_error>  (905) 


$$$$
C12287-P68
     RDKit          3D

 40 42  0  0  0  0  0  0  0  0999 V2000
    6.3519  -19.1478   15.3455 O   0  0  0  0  0  0  0  0  0  0  0  0
    7.2564  -19.7133   15.8985 C   0  0  0  0  0  0  0  0  0  0  0  0
    8.5491  -18.7966   16.2642 C   0  0  0  0  0  0  0  0  0  0  0  0
    8.4183  -17.1827   16.0372 C   0  0  0  0  0  0  0  0  0  0  0  0
    9.6639  -16.2879   16.3962 C   0  0  0  0  0  0  0  0  0  0  0  0
    9.5580  -14.7613   16.1942 C   0  0  0  0  0  0  0  0  0  0  0  0
   10.3683  -13.9843   15.2775 C   0  0  0  0  0  0  0  0  0  0  0  0
   10.1378  -12.6236   15.3421 C   0  0  0  0  0  0  0  0  0  0  0  0
    8.9622  -12.2403   16.5172 S   0  0  0  0  0  0  0  0  0  0  0  0
    8.7489  -13.8987   16.9189 C   0  0  0  0  0  0  0  0  0  0  0  0
    7.3600  -21.1210   16.4049 N   0  0  0  0  0  0  0  0  0  0  0  0
    6.3679  -22.3281   16.2843 C   0  0  0  0  0  0  0  0  0  0  0  0
    6.6595  -23.6371   17.1406 C   0  0  0  0  0  0  0  0  0  0  0  0
    5.6157  -24.8524   17.2856 C   0  0  0  0  0  0  0  0  0  0  0  0
    5.1887  -25.3496   18.4458 N   0  0  0  0  0  0  0  0  0  0  0  0
    4.5488  -26.6066   18.2997 C   0  0  0  0  0  0  0  0  0  0  0  0
    3.9784  -27.4215   19.3127 C   0  0  0  0  0  0  0  0  0  0  0  0
    3.5554  -28.7301   19.0220 C   0  0  0  0  0  0  0  0  0  0  0  0
    3.6538  -29.2430   17.7386 C   0  0  0  0  0  0  0  0  0  0  0  0
    4.1504  -28.4358   16.7069 C   0  0  0  0  0  0  0  0  0  0  0  0
    4.5813  -27.1173   17.0048 C   0  0  0  0  0  0  0  0  0  0  0  0
    5.2269  -25.8924   15.9496 S   0  0  0  0  0  0  0  0  0  0  0  0
    8.7858  -18.9693   17.3198 H   0  0  0  0  0  0  0  0  0  0  0  0
    9.3806  -19.1617   15.6516 H   0  0  0  0  0  0  0  0  0  0  0  0
    7.5550  -16.8418   16.6221 H   0  0  0  0  0  0  0  0  0  0  0  0
    8.1591  -17.0190   14.9839 H   0  0  0  0  0  0  0  0  0  0  0  0
   10.5172  -16.6528   15.8106 H   0  0  0  0  0  0  0  0  0  0  0  0
    9.9145  -16.4632   17.4504 H   0  0  0  0  0  0  0  0  0  0  0  0
   11.0908  -14.4198   14.5972 H   0  0  0  0  0  0  0  0  0  0  0  0
   10.5993  -11.8410   14.7553 H   0  0  0  0  0  0  0  0  0  0  0  0
    8.0331  -14.1605   17.6864 H   0  0  0  0  0  0  0  0  0  0  0  0
    8.3019  -21.2849   16.7447 H   0  0  0  0  0  0  0  0  0  0  0  0
    6.3574  -22.5863   15.2198 H   0  0  0  0  0  0  0  0  0  0  0  0
    5.3767  -21.9301   16.5232 H   0  0  0  0  0  0  0  0  0  0  0  0
    6.8992  -23.3270   18.1636 H   0  0  0  0  0  0  0  0  0  0  0  0
    7.5866  -24.0805   16.7520 H   0  0  0  0  0  0  0  0  0  0  0  0
    3.8998  -27.0421   20.3261 H   0  0  0  0  0  0  0  0  0  0  0  0
    3.1614  -29.3474   19.8120 H   0  0  0  0  0  0  0  0  0  0  0  0
    3.3225  -30.2558   17.5273 H   0  0  0  0  0  0  0  0  0  0  0  0
    4.2033  -28.8088   15.6887 H   0  0  0  0  0  0  0  0  0  0  0  0
  1  2  2  0
  2  3  1  0
  3  4  1  0
  4  5  1  0
  5  6  1  0
  6  7  1  0
  7  8  2  0
  8  9  1  0
  9 10  1  0
  2 11  1  0
 11 12  1  0
 12 13  1  0
 13 14  1  0
 14 15  2  0
 15 16  1  0
 16 17  2  0
 17 18  1  0
 18 19  2  0
 19 20  1  0
 20 21  2  0
 21 22  1  0
 10  6  2  0
 22 14  1  0
 21 16  1  0
  3 23  1  0
  3 24  1  0
  4 25  1  0
  4 26  1  0
  5 27  1  0
  5 28  1  0
  7 29  1  0
  8 30  1  0
 10 31  1  0
 11 32  1  0
 12 33  1  0
 12 34  1  0
 13 35  1  0
 13 36  1  0
 17 37  1  0
 18 38  1  0
 19 39  1  0
 20 40  1  0
M  END
>  <Energy>  (906) 
52.22901804184945

>  <compound_id>  (906) 
12287

>  <target_id>  (906) 
1

>  <reference_id>  (906) 
68

>  <inspiration_ids>  (906) 
[68, 20]

>  <energy_score>  (906) 
-28.290637221612428

>  <distance_score>  (906) 
15.25820098224079

>  <path>  (906) 
/opt/xchem-fragalysis-2/maxwin/BulkDock/SCRATCH/511015/C12287-P68/C12287-P68.minimised.mol

>  <scratch_subdir>  (906) 
/opt/xchem-fragalysis-2/maxwin/BulkDock/SCRATCH/511015/C12287-P68

>  <fragmenstein_runtime>  (906) 
28.890454053878784

>  <fragmenstein_outcome>  (906) 
too moved

>  <fragmenstein_mode>  (906) 
expansion

>  <fragmenstein_error>  (906) 


$$$$
C12287-P20
     RDKit          3D

 40 42  0  0  0  0  0  0  0  0999 V2000
    7.9171  -22.4003   18.1212 O   0  0  0  0  0  0  0  0  0  0  0  0
    7.1694  -22.3354   17.1801 C   0  0  0  0  0  0  0  0  0  0  0  0
    7.3428  -20.9967   16.2191 C   0  0  0  0  0  0  0  0  0  0  0  0
    8.2634  -19.6915   16.7308 C   0  0  0  0  0  0  0  0  0  0  0  0
    8.3546  -18.4474   15.7490 C   0  0  0  0  0  0  0  0  0  0  0  0
    8.8268  -17.0535   16.2289 C   0  0  0  0  0  0  0  0  0  0  0  0
    9.6703  -16.1705   15.4365 C   0  0  0  0  0  0  0  0  0  0  0  0
    9.8549  -14.9179   15.9877 C   0  0  0  0  0  0  0  0  0  0  0  0
    9.0253  -14.7620   17.4689 S   0  0  0  0  0  0  0  0  0  0  0  0
    8.4317  -16.3770   17.3729 C   0  0  0  0  0  0  0  0  0  0  0  0
    6.1226  -23.3013   16.6967 N   0  0  0  0  0  0  0  0  0  0  0  0
    5.7403  -24.7521   17.2023 C   0  0  0  0  0  0  0  0  0  0  0  0
    4.2023  -25.2070   17.1421 C   0  0  0  0  0  0  0  0  0  0  0  0
    3.6054  -26.4269   18.0209 C   0  0  0  0  0  0  0  0  0  0  0  0
    3.0444  -26.3334   19.2261 N   0  0  0  0  0  0  0  0  0  0  0  0
    2.2523  -27.4658   19.5463 C   0  0  0  0  0  0  0  0  0  0  0  0
    1.4021  -27.6359   20.6787 C   0  0  0  0  0  0  0  0  0  0  0  0
    0.5942  -28.7810   20.8208 C   0  0  0  0  0  0  0  0  0  0  0  0
    0.6434  -29.7866   19.8634 C   0  0  0  0  0  0  0  0  0  0  0  0
    1.4949  -29.6645   18.7525 C   0  0  0  0  0  0  0  0  0  0  0  0
    2.2789  -28.4894   18.6005 C   0  0  0  0  0  0  0  0  0  0  0  0
    3.3325  -27.9998   17.3012 S   0  0  0  0  0  0  0  0  0  0  0  0
    7.7992  -21.3565   15.2891 H   0  0  0  0  0  0  0  0  0  0  0  0
    6.3374  -20.6385   15.9809 H   0  0  0  0  0  0  0  0  0  0  0  0
    9.2779  -20.0696   16.9084 H   0  0  0  0  0  0  0  0  0  0  0  0
    7.8959  -19.3683   17.7065 H   0  0  0  0  0  0  0  0  0  0  0  0
    9.0003  -18.7514   14.9144 H   0  0  0  0  0  0  0  0  0  0  0  0
    7.3598  -18.2946   15.3123 H   0  0  0  0  0  0  0  0  0  0  0  0
   10.0999  -16.4515   14.4819 H   0  0  0  0  0  0  0  0  0  0  0  0
   10.4291  -14.0933   15.5875 H   0  0  0  0  0  0  0  0  0  0  0  0
    7.7884  -16.7367   18.1655 H   0  0  0  0  0  0  0  0  0  0  0  0
    5.7350  -22.9634   15.8214 H   0  0  0  0  0  0  0  0  0  0  0  0
    6.1626  -24.8733   18.2037 H   0  0  0  0  0  0  0  0  0  0  0  0
    6.3129  -25.4219   16.5501 H   0  0  0  0  0  0  0  0  0  0  0  0
    3.9815  -25.4389   16.0910 H   0  0  0  0  0  0  0  0  0  0  0  0
    3.5717  -24.3433   17.3691 H   0  0  0  0  0  0  0  0  0  0  0  0
    1.3609  -26.8343   21.4108 H   0  0  0  0  0  0  0  0  0  0  0  0
   -0.0707  -28.8744   21.6751 H   0  0  0  0  0  0  0  0  0  0  0  0
    0.0222  -30.6729   19.9703 H   0  0  0  0  0  0  0  0  0  0  0  0
    1.5269  -30.4411   17.9940 H   0  0  0  0  0  0  0  0  0  0  0  0
  1  2  2  0
  2  3  1  0
  3  4  1  0
  4  5  1  0
  5  6  1  0
  6  7  1  0
  7  8  2  0
  8  9  1  0
  9 10  1  0
  2 11  1  0
 11 12  1  0
 12 13  1  0
 13 14  1  0
 14 15  2  0
 15 16  1  0
 16 17  2  0
 17 18  1  0
 18 19  2  0
 19 20  1  0
 20 21  2  0
 21 22  1  0
 10  6  2  0
 22 14  1  0
 21 16  1  0
  3 23  1  0
  3 24  1  0
  4 25  1  0
  4 26  1  0
  5 27  1  0
  5 28  1  0
  7 29  1  0
  8 30  1  0
 10 31  1  0
 11 32  1  0
 12 33  1  0
 12 34  1  0
 13 35  1  0
 13 36  1  0
 17 37  1  0
 18 38  1  0
 19 39  1  0
 20 40  1  0
M  END
>  <Energy>  (907) 
64.581729138852864

>  <compound_id>  (907) 
12287

>  <target_id>  (907) 
1

>  <reference_id>  (907) 
20

>  <inspiration_ids>  (907) 
[68, 20]

>  <energy_score>  (907) 
-15.937926124613853

>  <distance_score>  (907) 
14.543410772175388

>  <path>  (907) 
/opt/xchem-fragalysis-2/maxwin/BulkDock/SCRATCH/511015/C12287-P20/C12287-P20.minimised.mol

>  <scratch_subdir>  (907) 
/opt/xchem-fragalysis-2/maxwin/BulkDock/SCRATCH/511015/C12287-P20

>  <fragmenstein_runtime>  (907) 
12.016656637191772

>  <fragmenstein_outcome>  (907) 
too moved

>  <fragmenstein_mode>  (907) 
expansion

>  <fragmenstein_error>  (907) 


$$$$
C12288-P68
     RDKit          3D

 42 44  0  0  0  0  0  0  0  0999 V2000
   -0.4996  -16.0202   22.0706 C   0  0  0  0  0  0  0  0  0  0  0  0
    0.5648  -16.4175   21.0422 C   0  0  0  0  0  0  0  0  0  0  0  0
    1.9736  -15.6712   21.4287 C   0  0  0  0  0  0  0  0  0  0  0  0
    2.5998  -14.5726   20.5055 C   0  0  0  0  0  0  0  0  0  0  0  0
    4.0311  -14.3966   20.3020 C   0  0  0  0  0  0  0  0  0  0  0  0
    4.3657  -13.2895   19.5454 C   0  0  0  0  0  0  0  0  0  0  0  0
    2.9800  -12.4215   19.0634 S   0  0  0  0  0  0  0  0  0  0  0  0
    1.9386  -13.5301   19.8732 C   0  0  0  0  0  0  0  0  0  0  0  0
    0.3996  -17.9418   20.7967 N   0  0  0  0  0  0  0  0  0  0  0  0
    0.7618  -19.1142   21.6448 C   0  0  0  0  0  0  0  0  0  0  0  0
    1.3467  -19.1674   22.6999 O   0  0  0  0  0  0  0  0  0  0  0  0
    0.2657  -20.5720   21.0134 C   0  0  0  0  0  0  0  0  0  0  0  0
    0.9517  -21.3092   19.8480 N   0  0  0  0  0  0  0  0  0  0  0  0
    1.3086  -20.6059   18.6209 C   0  0  0  0  0  0  0  0  0  0  0  0
    0.9988  -22.7322   19.7725 C   0  0  0  0  0  0  0  0  0  0  0  0
    0.6490  -23.5900   20.7123 N   0  0  0  0  0  0  0  0  0  0  0  0
    0.7013  -24.9480   20.3144 C   0  0  0  0  0  0  0  0  0  0  0  0
    0.1014  -26.1098   20.8512 C   0  0  0  0  0  0  0  0  0  0  0  0
    0.7393  -27.3138   20.7065 C   0  0  0  0  0  0  0  0  0  0  0  0
    1.9889  -27.3321   20.1092 C   0  0  0  0  0  0  0  0  0  0  0  0
    2.4532  -26.2305   19.3808 C   0  0  0  0  0  0  0  0  0  0  0  0
    1.6262  -25.1113   19.3226 C   0  0  0  0  0  0  0  0  0  0  0  0
    1.5599  -23.6712   18.3555 S   0  0  0  0  0  0  0  0  0  0  0  0
   -0.2680  -16.4428   23.0542 H   0  0  0  0  0  0  0  0  0  0  0  0
   -0.5672  -14.9318   22.1680 H   0  0  0  0  0  0  0  0  0  0  0  0
   -1.4870  -16.3912   21.7743 H   0  0  0  0  0  0  0  0  0  0  0  0
    0.2605  -15.9951   20.0764 H   0  0  0  0  0  0  0  0  0  0  0  0
    2.7382  -16.3993   21.6935 H   0  0  0  0  0  0  0  0  0  0  0  0
    1.7953  -15.1354   22.3737 H   0  0  0  0  0  0  0  0  0  0  0  0
    4.7779  -15.0621   20.7202 H   0  0  0  0  0  0  0  0  0  0  0  0
    5.3534  -12.9521   19.2630 H   0  0  0  0  0  0  0  0  0  0  0  0
    0.8743  -13.3390   19.8582 H   0  0  0  0  0  0  0  0  0  0  0  0
   -0.1646  -18.2583   20.0153 H   0  0  0  0  0  0  0  0  0  0  0  0
    0.2545  -21.2425   21.8793 H   0  0  0  0  0  0  0  0  0  0  0  0
   -0.7868  -20.4092   20.8109 H   0  0  0  0  0  0  0  0  0  0  0  0
    2.3806  -20.4876   18.5257 H   0  0  0  0  0  0  0  0  0  0  0  0
    0.7998  -19.6432   18.5339 H   0  0  0  0  0  0  0  0  0  0  0  0
    1.0553  -21.1469   17.7069 H   0  0  0  0  0  0  0  0  0  0  0  0
   -0.8125  -26.1051   21.4242 H   0  0  0  0  0  0  0  0  0  0  0  0
    0.2681  -28.1868   21.1380 H   0  0  0  0  0  0  0  0  0  0  0  0
    2.5849  -28.2357   20.0730 H   0  0  0  0  0  0  0  0  0  0  0  0
    3.3620  -26.2797   18.7903 H   0  0  0  0  0  0  0  0  0  0  0  0
  1  2  1  0
  2  3  1  0
  3  4  1  0
  4  5  1  0
  5  6  2  0
  6  7  1  0
  7  8  1  0
  2  9  1  0
  9 10  1  0
 10 11  2  0
 10 12  1  0
 12 13  1  0
 13 14  1  0
 13 15  1  0
 15 16  2  0
 16 17  1  0
 17 18  2  0
 18 19  1  0
 19 20  2  0
 20 21  1  0
 21 22  2  0
 22 23  1  0
  8  4  2  0
 23 15  1  0
 22 17  1  0
  1 24  1  0
  1 25  1  0
  1 26  1  0
  2 27  1  0
  3 28  1  0
  3 29  1  0
  5 30  1  0
  6 31  1  0
  8 32  1  0
  9 33  1  0
 12 34  1  0
 12 35  1  0
 14 36  1  0
 14 37  1  0
 14 38  1  0
 18 39  1  0
 19 40  1  0
 20 41  1  0
 21 42  1  0
M  END
>  <Energy>  (908) 
114.00000352407406

>  <compound_id>  (908) 
12288

>  <target_id>  (908) 
1

>  <reference_id>  (908) 
68

>  <inspiration_ids>  (908) 
[68, 20]

>  <energy_score>  (908) 
-14.960122174446497

>  <distance_score>  (908) 
15.968069690232236

>  <path>  (908) 
/opt/xchem-fragalysis-2/maxwin/BulkDock/SCRATCH/511015/C12288-P68/C12288-P68.minimised.mol

>  <scratch_subdir>  (908) 
/opt/xchem-fragalysis-2/maxwin/BulkDock/SCRATCH/511015/C12288-P68

>  <fragmenstein_runtime>  (908) 
19.078377962112427

>  <fragmenstein_outcome>  (908) 
too moved

>  <fragmenstein_mode>  (908) 
expansion

>  <fragmenstein_error>  (908) 


$$$$
C12288-P20
     RDKit          3D

 42 44  0  0  0  0  0  0  0  0999 V2000
   -0.8711  -17.3151   16.7249 C   0  0  0  0  0  0  0  0  0  0  0  0
   -1.4113  -16.7262   18.0320 C   0  0  0  0  0  0  0  0  0  0  0  0
   -0.1987  -16.0211   18.8514 C   0  0  0  0  0  0  0  0  0  0  0  0
    0.6415  -14.8392   18.2392 C   0  0  0  0  0  0  0  0  0  0  0  0
    1.9668  -14.4577   18.7157 C   0  0  0  0  0  0  0  0  0  0  0  0
    2.5181  -13.3694   18.0664 C   0  0  0  0  0  0  0  0  0  0  0  0
    1.4634  -12.7569   16.8766 S   0  0  0  0  0  0  0  0  0  0  0  0
    0.2715  -13.9484   17.2425 C   0  0  0  0  0  0  0  0  0  0  0  0
   -2.2723  -17.8420   18.7001 N   0  0  0  0  0  0  0  0  0  0  0  0
   -3.6529  -18.3219   18.3978 C   0  0  0  0  0  0  0  0  0  0  0  0
   -4.4711  -17.9080   17.6132 O   0  0  0  0  0  0  0  0  0  0  0  0
   -4.2039  -19.6592   19.3129 C   0  0  0  0  0  0  0  0  0  0  0  0
   -4.7293  -20.8822   18.5018 N   0  0  0  0  0  0  0  0  0  0  0  0
   -5.4017  -20.5112   17.2482 C   0  0  0  0  0  0  0  0  0  0  0  0
   -5.2054  -22.0982   19.0608 C   0  0  0  0  0  0  0  0  0  0  0  0
   -5.8619  -22.3124   20.1925 N   0  0  0  0  0  0  0  0  0  0  0  0
   -6.2173  -23.6823   20.3819 C   0  0  0  0  0  0  0  0  0  0  0  0
   -6.9320  -24.2475   21.4735 C   0  0  0  0  0  0  0  0  0  0  0  0
   -7.2069  -25.6270   21.5275 C   0  0  0  0  0  0  0  0  0  0  0  0
   -6.7773  -26.4656   20.5073 C   0  0  0  0  0  0  0  0  0  0  0  0
   -6.0623  -25.9417   19.4227 C   0  0  0  0  0  0  0  0  0  0  0  0
   -5.7924  -24.5508   19.3809 C   0  0  0  0  0  0  0  0  0  0  0  0
   -4.9394  -23.6315   18.1955 S   0  0  0  0  0  0  0  0  0  0  0  0
   -0.3648  -16.5607   16.1169 H   0  0  0  0  0  0  0  0  0  0  0  0
   -1.6837  -17.7331   16.1208 H   0  0  0  0  0  0  0  0  0  0  0  0
   -0.1606  -18.1237   16.9266 H   0  0  0  0  0  0  0  0  0  0  0  0
   -2.1356  -15.9442   17.7736 H   0  0  0  0  0  0  0  0  0  0  0  0
    0.5092  -16.8116   19.1282 H   0  0  0  0  0  0  0  0  0  0  0  0
   -0.6262  -15.6457   19.7905 H   0  0  0  0  0  0  0  0  0  0  0  0
    2.4816  -14.9741   19.5177 H   0  0  0  0  0  0  0  0  0  0  0  0
    3.4807  -12.9100   18.2432 H   0  0  0  0  0  0  0  0  0  0  0  0
   -0.6595  -13.9277   16.6921 H   0  0  0  0  0  0  0  0  0  0  0  0
   -1.8338  -18.4810   19.3612 H   0  0  0  0  0  0  0  0  0  0  0  0
   -5.0361  -19.2748   19.9150 H   0  0  0  0  0  0  0  0  0  0  0  0
   -3.4117  -19.9675   19.9983 H   0  0  0  0  0  0  0  0  0  0  0  0
   -6.1872  -19.7719   17.4372 H   0  0  0  0  0  0  0  0  0  0  0  0
   -4.6746  -20.1123   16.5342 H   0  0  0  0  0  0  0  0  0  0  0  0
   -5.8808  -21.3605   16.7484 H   0  0  0  0  0  0  0  0  0  0  0  0
   -7.2636  -23.5948   22.2756 H   0  0  0  0  0  0  0  0  0  0  0  0
   -7.7520  -26.0365   22.3748 H   0  0  0  0  0  0  0  0  0  0  0  0
   -6.9868  -27.5332   20.5552 H   0  0  0  0  0  0  0  0  0  0  0  0
   -5.7147  -26.5955   18.6279 H   0  0  0  0  0  0  0  0  0  0  0  0
  1  2  1  0
  2  3  1  0
  3  4  1  0
  4  5  1  0
  5  6  2  0
  6  7  1  0
  7  8  1  0
  2  9  1  0
  9 10  1  0
 10 11  2  0
 10 12  1  0
 12 13  1  0
 13 14  1  0
 13 15  1  0
 15 16  2  0
 16 17  1  0
 17 18  2  0
 18 19  1  0
 19 20  2  0
 20 21  1  0
 21 22  2  0
 22 23  1  0
  8  4  2  0
 23 15  1  0
 22 17  1  0
  1 24  1  0
  1 25  1  0
  1 26  1  0
  2 27  1  0
  3 28  1  0
  3 29  1  0
  5 30  1  0
  6 31  1  0
  8 32  1  0
  9 33  1  0
 12 34  1  0
 12 35  1  0
 14 36  1  0
 14 37  1  0
 14 38  1  0
 18 39  1  0
 19 40  1  0
 20 41  1  0
 21 42  1  0
M  END
>  <Energy>  (909) 
82.137044418636208

>  <compound_id>  (909) 
12288

>  <target_id>  (909) 
1

>  <reference_id>  (909) 
20

>  <inspiration_ids>  (909) 
[68, 20]

>  <energy_score>  (909) 
-46.823081279886026

>  <distance_score>  (909) 
15.037207762016376

>  <path>  (909) 
/opt/xchem-fragalysis-2/maxwin/BulkDock/SCRATCH/511015/C12288-P20/C12288-P20.minimised.mol

>  <scratch_subdir>  (909) 
/opt/xchem-fragalysis-2/maxwin/BulkDock/SCRATCH/511015/C12288-P20

>  <fragmenstein_runtime>  (909) 
13.081536054611206

>  <fragmenstein_outcome>  (909) 
too moved

>  <fragmenstein_mode>  (909) 
expansion

>  <fragmenstein_error>  (909) 


$$$$
C12291-P68
     RDKit          3D

 34 36  0  0  0  0  0  0  0  0999 V2000
    1.5051  -19.8830   17.6725 O   0  0  0  0  0  0  0  0  0  0  0  0
    2.2364  -20.7831   17.3377 C   0  0  0  0  0  0  0  0  0  0  0  0
    1.8701  -22.3311   17.9785 C   0  0  0  0  0  0  0  0  0  0  0  0
    0.6219  -23.3161   17.5775 C   0  0  0  0  0  0  0  0  0  0  0  0
   -0.0057  -24.4859   18.4538 C   0  0  0  0  0  0  0  0  0  0  0  0
   -0.3224  -24.3511   19.8125 C   0  0  0  0  0  0  0  0  0  0  0  0
   -0.9910  -25.3755   20.5532 C   0  0  0  0  0  0  0  0  0  0  0  0
   -1.3775  -26.5949   19.9495 C   0  0  0  0  0  0  0  0  0  0  0  0
   -2.0114  -27.6789   20.5634 N   0  0  0  0  0  0  0  0  0  0  0  0
   -2.1845  -28.6397   19.6822 C   0  0  0  0  0  0  0  0  0  0  0  0
   -1.6664  -28.2987   18.0825 S   0  0  0  0  0  0  0  0  0  0  0  0
   -1.0938  -26.7405   18.5897 C   0  0  0  0  0  0  0  0  0  0  0  0
   -0.4338  -25.7057   17.8431 C   0  0  0  0  0  0  0  0  0  0  0  0
    3.4884  -20.7641   16.4879 N   0  0  0  0  0  0  0  0  0  0  0  0
    4.2419  -19.4844   15.6108 S   0  0  0  0  0  0  0  0  0  0  0  0
    5.6724  -19.7520   15.7839 O   0  0  0  0  0  0  0  0  0  0  0  0
    3.7073  -19.5837   14.2653 O   0  0  0  0  0  0  0  0  0  0  0  0
    4.3228  -17.7038   15.8513 C   0  0  0  0  0  0  0  0  0  0  0  0
    3.3815  -16.7440   15.3527 C   0  0  0  0  0  0  0  0  0  0  0  0
    3.7928  -15.4262   15.4778 C   0  0  0  0  0  0  0  0  0  0  0  0
    5.3781  -15.3101   16.0958 S   0  0  0  0  0  0  0  0  0  0  0  0
    5.5065  -17.0226   16.1522 C   0  0  0  0  0  0  0  0  0  0  0  0
    2.7868  -22.9220   17.8774 H   0  0  0  0  0  0  0  0  0  0  0  0
    1.7351  -22.1116   19.0450 H   0  0  0  0  0  0  0  0  0  0  0  0
   -0.2148  -22.6800   17.3130 H   0  0  0  0  0  0  0  0  0  0  0  0
    0.9356  -23.7794   16.6319 H   0  0  0  0  0  0  0  0  0  0  0  0
   -0.0584  -23.4322   20.3353 H   0  0  0  0  0  0  0  0  0  0  0  0
   -1.2039  -25.2219   21.6073 H   0  0  0  0  0  0  0  0  0  0  0  0
   -2.6301  -29.5927   19.9370 H   0  0  0  0  0  0  0  0  0  0  0  0
   -0.2529  -25.8674   16.7820 H   0  0  0  0  0  0  0  0  0  0  0  0
    3.8055  -21.7152   16.3393 H   0  0  0  0  0  0  0  0  0  0  0  0
    2.4503  -17.0250   14.8773 H   0  0  0  0  0  0  0  0  0  0  0  0
    3.2464  -14.5372   15.1941 H   0  0  0  0  0  0  0  0  0  0  0  0
    6.4667  -17.4545   16.3989 H   0  0  0  0  0  0  0  0  0  0  0  0
  1  2  2  0
  2  3  1  0
  3  4  1  0
  4  5  1  0
  5  6  2  0
  6  7  1  0
  7  8  2  0
  8  9  1  0
  9 10  2  0
 10 11  1  0
 11 12  1  0
 12 13  2  0
  2 14  1  0
 14 15  1  0
 15 16  2  0
 15 17  2  0
 15 18  1  0
 18 19  1  0
 19 20  2  0
 20 21  1  0
 21 22  1  0
 13  5  1  0
 22 18  2  0
 12  8  1  0
  3 23  1  0
  3 24  1  0
  4 25  1  0
  4 26  1  0
  6 27  1  0
  7 28  1  0
 10 29  1  0
 13 30  1  0
 14 31  1  0
 19 32  1  0
 20 33  1  0
 22 34  1  0
M  END
>  <Energy>  (910) 
-15.271481407563886

>  <compound_id>  (910) 
12291

>  <target_id>  (910) 
1

>  <reference_id>  (910) 
68

>  <inspiration_ids>  (910) 
[68, 20]

>  <energy_score>  (910) 
-32.81547536045383

>  <distance_score>  (910) 
15.72789048933498

>  <path>  (910) 
/opt/xchem-fragalysis-2/maxwin/BulkDock/SCRATCH/511015/C12291-P68/C12291-P68.minimised.mol

>  <scratch_subdir>  (910) 
/opt/xchem-fragalysis-2/maxwin/BulkDock/SCRATCH/511015/C12291-P68

>  <fragmenstein_runtime>  (910) 
14.612097978591919

>  <fragmenstein_outcome>  (910) 
too moved

>  <fragmenstein_mode>  (910) 
expansion

>  <fragmenstein_error>  (910) 


$$$$
C12291-P20
     RDKit          3D

 34 36  0  0  0  0  0  0  0  0999 V2000
   -0.3113  -19.6372   17.2774 O   0  0  0  0  0  0  0  0  0  0  0  0
    0.0782  -18.7626   17.8159 C   0  0  0  0  0  0  0  0  0  0  0  0
   -1.3152  -18.0618   18.9981 C   0  0  0  0  0  0  0  0  0  0  0  0
   -3.0680  -18.8247   19.0875 C   0  0  0  0  0  0  0  0  0  0  0  0
   -4.0921  -20.1981   19.4097 C   0  0  0  0  0  0  0  0  0  0  0  0
   -5.1581  -20.4728   18.5262 C   0  0  0  0  0  0  0  0  0  0  0  0
   -5.8668  -21.7276   18.4995 C   0  0  0  0  0  0  0  0  0  0  0  0
   -5.5194  -22.8012   19.3510 C   0  0  0  0  0  0  0  0  0  0  0  0
   -5.9926  -24.1131   19.3267 N   0  0  0  0  0  0  0  0  0  0  0  0
   -5.3418  -24.8320   20.2136 C   0  0  0  0  0  0  0  0  0  0  0  0
   -4.2583  -23.9767   21.2258 S   0  0  0  0  0  0  0  0  0  0  0  0
   -4.5496  -22.5321   20.3075 C   0  0  0  0  0  0  0  0  0  0  0  0
   -3.9092  -21.2465   20.3797 C   0  0  0  0  0  0  0  0  0  0  0  0
    1.7089  -18.3451   17.2373 N   0  0  0  0  0  0  0  0  0  0  0  0
    2.8584  -19.1127   15.7898 S   0  0  0  0  0  0  0  0  0  0  0  0
    3.7717  -20.0954   16.3420 O   0  0  0  0  0  0  0  0  0  0  0  0
    2.0893  -19.6189   14.6703 O   0  0  0  0  0  0  0  0  0  0  0  0
    4.2375  -17.9072   14.9189 C   0  0  0  0  0  0  0  0  0  0  0  0
    5.2653  -18.4639   14.0802 C   0  0  0  0  0  0  0  0  0  0  0  0
    6.1751  -17.5161   13.6375 C   0  0  0  0  0  0  0  0  0  0  0  0
    5.8196  -15.9440   14.2006 S   0  0  0  0  0  0  0  0  0  0  0  0
    4.4310  -16.5245   15.0307 C   0  0  0  0  0  0  0  0  0  0  0  0
   -0.9657  -17.8754   20.0285 H   0  0  0  0  0  0  0  0  0  0  0  0
   -1.7029  -17.0624   18.8353 H   0  0  0  0  0  0  0  0  0  0  0  0
   -3.4196  -18.5691   18.0767 H   0  0  0  0  0  0  0  0  0  0  0  0
   -3.5615  -18.0547   19.6926 H   0  0  0  0  0  0  0  0  0  0  0  0
   -5.4201  -19.7382   17.7640 H   0  0  0  0  0  0  0  0  0  0  0  0
   -6.6354  -21.8858   17.7469 H   0  0  0  0  0  0  0  0  0  0  0  0
   -5.4824  -25.8988   20.3092 H   0  0  0  0  0  0  0  0  0  0  0  0
   -3.1419  -21.1755   21.1218 H   0  0  0  0  0  0  0  0  0  0  0  0
    1.9790  -17.5080   17.6897 H   0  0  0  0  0  0  0  0  0  0  0  0
    5.3211  -19.5174   13.8283 H   0  0  0  0  0  0  0  0  0  0  0  0
    7.0323  -17.6825   12.9990 H   0  0  0  0  0  0  0  0  0  0  0  0
    3.8576  -15.7821   15.5589 H   0  0  0  0  0  0  0  0  0  0  0  0
  1  2  2  0
  2  3  1  0
  3  4  1  0
  4  5  1  0
  5  6  2  0
  6  7  1  0
  7  8  2  0
  8  9  1  0
  9 10  2  0
 10 11  1  0
 11 12  1  0
 12 13  2  0
  2 14  1  0
 14 15  1  0
 15 16  2  0
 15 17  2  0
 15 18  1  0
 18 19  1  0
 19 20  2  0
 20 21  1  0
 21 22  1  0
 13  5  1  0
 22 18  2  0
 12  8  1  0
  3 23  1  0
  3 24  1  0
  4 25  1  0
  4 26  1  0
  6 27  1  0
  7 28  1  0
 10 29  1  0
 13 30  1  0
 14 31  1  0
 19 32  1  0
 20 33  1  0
 22 34  1  0
M  END
>  <Energy>  (911) 
209.40655067296868

>  <compound_id>  (911) 
12291

>  <target_id>  (911) 
1

>  <reference_id>  (911) 
20

>  <inspiration_ids>  (911) 
[68, 20]

>  <energy_score>  (911) 
191.8625567200811

>  <distance_score>  (911) 
16.662274646916313

>  <path>  (911) 
/opt/xchem-fragalysis-2/maxwin/BulkDock/SCRATCH/511015/C12291-P20/C12291-P20.minimised.mol

>  <scratch_subdir>  (911) 
/opt/xchem-fragalysis-2/maxwin/BulkDock/SCRATCH/511015/C12291-P20

>  <fragmenstein_runtime>  (911) 
8.041005849838257

>  <fragmenstein_outcome>  (911) 
too moved

>  <fragmenstein_mode>  (911) 
expansion

>  <fragmenstein_error>  (911) 


$$$$
C12292-P68
     RDKit          3D

 40 42  0  0  0  0  0  0  0  0999 V2000
    5.2302  -21.4154   14.1408 C   0  0  0  0  0  0  0  0  0  0  0  0
    5.1927  -20.9926   15.6133 C   0  0  0  0  0  0  0  0  0  0  0  0
    3.9661  -21.7496   16.3523 C   0  0  0  0  0  0  0  0  0  0  0  0
    4.2353  -23.2168   16.5086 N   0  0  0  0  0  0  0  0  0  0  0  0
    3.4710  -24.0837   17.2828 C   0  0  0  0  0  0  0  0  0  0  0  0
    2.2162  -23.9592   17.6523 N   0  0  0  0  0  0  0  0  0  0  0  0
    1.8842  -24.9407   18.6043 C   0  0  0  0  0  0  0  0  0  0  0  0
    0.6647  -25.0424   19.2989 C   0  0  0  0  0  0  0  0  0  0  0  0
    0.4287  -26.0244   20.2673 C   0  0  0  0  0  0  0  0  0  0  0  0
    1.4453  -26.8868   20.6077 C   0  0  0  0  0  0  0  0  0  0  0  0
    2.6733  -26.8545   19.9293 C   0  0  0  0  0  0  0  0  0  0  0  0
    2.8720  -25.8808   18.9114 C   0  0  0  0  0  0  0  0  0  0  0  0
    4.2065  -25.5808   17.8519 S   0  0  0  0  0  0  0  0  0  0  0  0
    5.3614  -19.4817   15.6517 N   0  0  0  0  0  0  0  0  0  0  0  0
    6.5594  -18.6479   15.8915 C   0  0  0  0  0  0  0  0  0  0  0  0
    7.6812  -18.9604   16.1950 O   0  0  0  0  0  0  0  0  0  0  0  0
    6.3196  -17.0416   15.6525 C   0  0  0  0  0  0  0  0  0  0  0  0
    7.3816  -16.1992   16.2003 O   0  0  0  0  0  0  0  0  0  0  0  0
    7.4713  -14.8735   15.8575 C   0  0  0  0  0  0  0  0  0  0  0  0
    6.7326  -14.0920   14.9183 C   0  0  0  0  0  0  0  0  0  0  0  0
    7.1649  -12.7762   14.8545 C   0  0  0  0  0  0  0  0  0  0  0  0
    8.4539  -12.4672   15.9343 S   0  0  0  0  0  0  0  0  0  0  0  0
    8.4404  -14.0969   16.4709 C   0  0  0  0  0  0  0  0  0  0  0  0
    4.3532  -21.0354   13.6057 H   0  0  0  0  0  0  0  0  0  0  0  0
    5.2517  -22.5045   14.0358 H   0  0  0  0  0  0  0  0  0  0  0  0
    6.1201  -21.0148   13.6426 H   0  0  0  0  0  0  0  0  0  0  0  0
    6.1139  -21.3711   16.0746 H   0  0  0  0  0  0  0  0  0  0  0  0
    3.0527  -21.6116   15.7624 H   0  0  0  0  0  0  0  0  0  0  0  0
    3.7899  -21.2998   17.3284 H   0  0  0  0  0  0  0  0  0  0  0  0
    5.2206  -23.4520   16.5284 H   0  0  0  0  0  0  0  0  0  0  0  0
   -0.0855  -24.3392   18.9863 H   0  0  0  0  0  0  0  0  0  0  0  0
   -0.5354  -26.1087   20.7556 H   0  0  0  0  0  0  0  0  0  0  0  0
    1.2790  -27.5794   21.4219 H   0  0  0  0  0  0  0  0  0  0  0  0
    3.4607  -27.5509   20.1860 H   0  0  0  0  0  0  0  0  0  0  0  0
    4.5622  -18.8775   15.4948 H   0  0  0  0  0  0  0  0  0  0  0  0
    6.2626  -16.9023   14.5675 H   0  0  0  0  0  0  0  0  0  0  0  0
    5.3734  -16.7627   16.1268 H   0  0  0  0  0  0  0  0  0  0  0  0
    5.9270  -14.4631   14.2992 H   0  0  0  0  0  0  0  0  0  0  0  0
    6.7870  -11.9826   14.2233 H   0  0  0  0  0  0  0  0  0  0  0  0
    9.1527  -14.4188   17.2176 H   0  0  0  0  0  0  0  0  0  0  0  0
  1  2  1  0
  2  3  1  0
  3  4  1  0
  4  5  1  0
  5  6  2  0
  6  7  1  0
  7  8  2  0
  8  9  1  0
  9 10  2  0
 10 11  1  0
 11 12  2  0
 12 13  1  0
  2 14  1  0
 14 15  1  0
 15 16  2  0
 15 17  1  0
 17 18  1  0
 18 19  1  0
 19 20  1  0
 20 21  2  0
 21 22  1  0
 22 23  1  0
 13  5  1  0
 23 19  2  0
 12  7  1  0
  1 24  1  0
  1 25  1  0
  1 26  1  0
  2 27  1  0
  3 28  1  0
  3 29  1  0
  4 30  1  0
  8 31  1  0
  9 32  1  0
 10 33  1  0
 11 34  1  0
 14 35  1  0
 17 36  1  0
 17 37  1  0
 20 38  1  0
 21 39  1  0
 23 40  1  0
M  END
>  <Energy>  (912) 
51.049325384210839

>  <compound_id>  (912) 
12292

>  <target_id>  (912) 
1

>  <reference_id>  (912) 
68

>  <inspiration_ids>  (912) 
[68, 20]

>  <energy_score>  (912) 
-43.597787029309586

>  <distance_score>  (912) 
14.822815993779713

>  <path>  (912) 
/opt/xchem-fragalysis-2/maxwin/BulkDock/SCRATCH/511015/C12292-P68/C12292-P68.minimised.mol

>  <scratch_subdir>  (912) 
/opt/xchem-fragalysis-2/maxwin/BulkDock/SCRATCH/511015/C12292-P68

>  <fragmenstein_runtime>  (912) 
22.409196376800537

>  <fragmenstein_outcome>  (912) 
too moved

>  <fragmenstein_mode>  (912) 
expansion

>  <fragmenstein_error>  (912) 


$$$$
C12292-P20
     RDKit          3D

 40 42  0  0  0  0  0  0  0  0999 V2000
    6.2575  -26.1184   17.9313 C   0  0  0  0  0  0  0  0  0  0  0  0
    5.0352  -25.4895   17.2547 C   0  0  0  0  0  0  0  0  0  0  0  0
    3.6855  -25.9288   18.1248 C   0  0  0  0  0  0  0  0  0  0  0  0
    3.3914  -27.4123   18.1153 N   0  0  0  0  0  0  0  0  0  0  0  0
    2.3758  -28.0815   18.8195 C   0  0  0  0  0  0  0  0  0  0  0  0
    1.6667  -27.7138   19.8778 N   0  0  0  0  0  0  0  0  0  0  0  0
    0.6668  -28.6666   20.2244 C   0  0  0  0  0  0  0  0  0  0  0  0
   -0.3418  -28.5337   21.2185 C   0  0  0  0  0  0  0  0  0  0  0  0
   -1.3190  -29.5290   21.4036 C   0  0  0  0  0  0  0  0  0  0  0  0
   -1.3092  -30.6694   20.6112 C   0  0  0  0  0  0  0  0  0  0  0  0
   -0.3281  -30.8321   19.6229 C   0  0  0  0  0  0  0  0  0  0  0  0
    0.6427  -29.8158   19.4388 C   0  0  0  0  0  0  0  0  0  0  0  0
    1.9273  -29.7052   18.2855 S   0  0  0  0  0  0  0  0  0  0  0  0
    5.3470  -23.9854   16.8880 N   0  0  0  0  0  0  0  0  0  0  0  0
    6.6577  -23.2724   16.6910 C   0  0  0  0  0  0  0  0  0  0  0  0
    7.7895  -23.6591   16.8448 O   0  0  0  0  0  0  0  0  0  0  0  0
    6.5531  -21.6917   16.1456 C   0  0  0  0  0  0  0  0  0  0  0  0
    7.6053  -20.7695   16.6245 O   0  0  0  0  0  0  0  0  0  0  0  0
    7.8013  -19.5221   16.0686 C   0  0  0  0  0  0  0  0  0  0  0  0
    7.3921  -18.9712   14.8131 C   0  0  0  0  0  0  0  0  0  0  0  0
    7.7647  -17.6438   14.6532 C   0  0  0  0  0  0  0  0  0  0  0  0
    8.6211  -17.0463   16.0063 S   0  0  0  0  0  0  0  0  0  0  0  0
    8.5167  -18.5736   16.7878 C   0  0  0  0  0  0  0  0  0  0  0  0
    6.0880  -27.1739   18.1654 H   0  0  0  0  0  0  0  0  0  0  0  0
    6.5026  -25.5975   18.8623 H   0  0  0  0  0  0  0  0  0  0  0  0
    7.1339  -26.0758   17.2776 H   0  0  0  0  0  0  0  0  0  0  0  0
    4.9155  -25.9593   16.2702 H   0  0  0  0  0  0  0  0  0  0  0  0
    2.8355  -25.3928   17.7038 H   0  0  0  0  0  0  0  0  0  0  0  0
    3.8221  -25.6313   19.1656 H   0  0  0  0  0  0  0  0  0  0  0  0
    3.5711  -27.8348   17.2100 H   0  0  0  0  0  0  0  0  0  0  0  0
   -0.3728  -27.6223   21.8084 H   0  0  0  0  0  0  0  0  0  0  0  0
   -2.0894  -29.3956   22.1598 H   0  0  0  0  0  0  0  0  0  0  0  0
   -2.0676  -31.4368   20.7531 H   0  0  0  0  0  0  0  0  0  0  0  0
   -0.3214  -31.7184   18.9948 H   0  0  0  0  0  0  0  0  0  0  0  0
    4.5874  -23.3801   16.5837 H   0  0  0  0  0  0  0  0  0  0  0  0
    5.5745  -21.3013   16.4337 H   0  0  0  0  0  0  0  0  0  0  0  0
    6.6146  -21.7587   15.0538 H   0  0  0  0  0  0  0  0  0  0  0  0
    6.8483  -19.5140   14.0502 H   0  0  0  0  0  0  0  0  0  0  0  0
    7.5777  -17.0028   13.8019 H   0  0  0  0  0  0  0  0  0  0  0  0
    8.9666  -18.7012   17.7636 H   0  0  0  0  0  0  0  0  0  0  0  0
  1  2  1  0
  2  3  1  0
  3  4  1  0
  4  5  1  0
  5  6  2  0
  6  7  1  0
  7  8  2  0
  8  9  1  0
  9 10  2  0
 10 11  1  0
 11 12  2  0
 12 13  1  0
  2 14  1  0
 14 15  1  0
 15 16  2  0
 15 17  1  0
 17 18  1  0
 18 19  1  0
 19 20  1  0
 20 21  2  0
 21 22  1  0
 22 23  1  0
 13  5  1  0
 23 19  2  0
 12  7  1  0
  1 24  1  0
  1 25  1  0
  1 26  1  0
  2 27  1  0
  3 28  1  0
  3 29  1  0
  4 30  1  0
  8 31  1  0
  9 32  1  0
 10 33  1  0
 11 34  1  0
 14 35  1  0
 17 36  1  0
 17 37  1  0
 20 38  1  0
 21 39  1  0
 23 40  1  0
M  END
>  <Energy>  (913) 
68.488988637856593

>  <compound_id>  (913) 
12292

>  <target_id>  (913) 
1

>  <reference_id>  (913) 
20

>  <inspiration_ids>  (913) 
[68, 20]

>  <energy_score>  (913) 
-26.158123775661977

>  <distance_score>  (913) 
14.355578048719192

>  <path>  (913) 
/opt/xchem-fragalysis-2/maxwin/BulkDock/SCRATCH/511015/C12292-P20/C12292-P20.minimised.mol

>  <scratch_subdir>  (913) 
/opt/xchem-fragalysis-2/maxwin/BulkDock/SCRATCH/511015/C12292-P20

>  <fragmenstein_runtime>  (913) 
6.914175033569336

>  <fragmenstein_outcome>  (913) 
too moved

>  <fragmenstein_mode>  (913) 
expansion

>  <fragmenstein_error>  (913) 


$$$$
C12293-P68
     RDKit          3D

 31 33  0  0  0  0  0  0  0  0999 V2000
    1.4569  -25.6828   19.6705 C   0  0  0  0  0  0  0  0  0  0  0  0
    0.0932  -25.1560   19.2023 C   0  0  0  0  0  0  0  0  0  0  0  0
   -1.0975  -26.0590   20.1883 C   0  0  0  0  0  0  0  0  0  0  0  0
   -0.6424  -26.3921   21.2589 O   0  0  0  0  0  0  0  0  0  0  0  0
   -2.4573  -26.3187   19.5784 N   0  0  0  0  0  0  0  0  0  0  0  0
   -3.6044  -27.0514   20.0898 C   0  0  0  0  0  0  0  0  0  0  0  0
   -4.3927  -27.8840   19.3952 N   0  0  0  0  0  0  0  0  0  0  0  0
   -5.2692  -28.7057   20.2309 C   0  0  0  0  0  0  0  0  0  0  0  0
   -5.6283  -30.4577   19.9101 C   0  0  0  0  0  0  0  0  0  0  0  0
   -5.5266  -30.6670   18.1921 Cl  0  0  0  0  0  0  0  0  0  0  0  0
   -6.0053  -31.6968   21.3001 C   0  0  0  0  0  0  0  0  0  0  0  0
   -6.1813  -30.6677   23.3268 C   0  0  0  0  0  0  0  0  0  0  0  0
   -5.8812  -28.8525   23.3347 C   0  0  0  0  0  0  0  0  0  0  0  0
   -5.3760  -28.0150   21.8180 C   0  0  0  0  0  0  0  0  0  0  0  0
   -4.1153  -26.7207   21.7303 S   0  0  0  0  0  0  0  0  0  0  0  0
    0.4994  -23.6197   18.7649 C   0  0  0  0  0  0  0  0  0  0  0  0
    0.8806  -22.4920   19.5790 C   0  0  0  0  0  0  0  0  0  0  0  0
    1.4894  -21.4684   18.8797 C   0  0  0  0  0  0  0  0  0  0  0  0
    1.6484  -21.7886   17.2232 S   0  0  0  0  0  0  0  0  0  0  0  0
    0.8792  -23.3106   17.4455 C   0  0  0  0  0  0  0  0  0  0  0  0
    1.6492  -25.2782   20.6601 H   0  0  0  0  0  0  0  0  0  0  0  0
    1.4331  -26.7661   19.8281 H   0  0  0  0  0  0  0  0  0  0  0  0
    2.2732  -25.4582   18.9797 H   0  0  0  0  0  0  0  0  0  0  0  0
   -0.2311  -25.4065   18.2195 H   0  0  0  0  0  0  0  0  0  0  0  0
   -2.4698  -25.9672   18.6339 H   0  0  0  0  0  0  0  0  0  0  0  0
   -6.1519  -32.7495   21.0559 H   0  0  0  0  0  0  0  0  0  0  0  0
   -6.1556  -31.0620   24.3495 H   0  0  0  0  0  0  0  0  0  0  0  0
   -5.6361  -28.3401   24.2641 H   0  0  0  0  0  0  0  0  0  0  0  0
    0.6965  -22.4473   20.6375 H   0  0  0  0  0  0  0  0  0  0  0  0
    1.8416  -20.5457   19.2722 H   0  0  0  0  0  0  0  0  0  0  0  0
    0.8157  -23.9673   16.5888 H   0  0  0  0  0  0  0  0  0  0  0  0
  1  2  1  0
  2  3  1  0
  3  4  2  0
  3  5  1  0
  5  6  1  0
  6  7  2  0
  7  8  1  0
  8  9  2  0
  9 10  1  0
  9 11  1  0
 11 12  2  0
 12 13  1  0
 13 14  2  0
 14 15  1  0
  2 16  1  0
 16 17  1  0
 17 18  2  0
 18 19  1  0
 19 20  1  0
 15  6  1  0
 20 16  2  0
 14  8  1  0
  1 21  1  0
  1 22  1  0
  1 23  1  0
  2 24  1  0
  5 25  1  0
 11 26  1  0
 12 27  1  0
 13 28  1  0
 17 29  1  0
 18 30  1  0
 20 31  1  0
M  END
>  <Energy>  (914) 
758.73961755345624

>  <compound_id>  (914) 
12293

>  <target_id>  (914) 
1

>  <reference_id>  (914) 
68

>  <inspiration_ids>  (914) 
[68, 20]

>  <energy_score>  (914) 
645.6790288546906

>  <distance_score>  (914) 
17.657982851013788

>  <path>  (914) 
/opt/xchem-fragalysis-2/maxwin/BulkDock/SCRATCH/511015/C12293-P68/C12293-P68.minimised.mol

>  <scratch_subdir>  (914) 
/opt/xchem-fragalysis-2/maxwin/BulkDock/SCRATCH/511015/C12293-P68

>  <fragmenstein_runtime>  (914) 
7.6666271686553955

>  <fragmenstein_outcome>  (914) 
too moved

>  <fragmenstein_mode>  (914) 
expansion

>  <fragmenstein_error>  (914) 


$$$$
C12293-P20
     RDKit          3D

 31 33  0  0  0  0  0  0  0  0999 V2000
    9.0116  -17.6951   24.6550 C   0  0  0  0  0  0  0  0  0  0  0  0
    8.1579  -17.0497   25.7674 C   0  0  0  0  0  0  0  0  0  0  0  0
    6.8546  -17.9329   26.3494 C   0  0  0  0  0  0  0  0  0  0  0  0
    5.8301  -17.3279   26.5459 O   0  0  0  0  0  0  0  0  0  0  0  0
    7.1799  -19.3760   26.5406 N   0  0  0  0  0  0  0  0  0  0  0  0
    6.3638  -20.4673   26.9144 C   0  0  0  0  0  0  0  0  0  0  0  0
    6.5522  -21.6869   26.4310 N   0  0  0  0  0  0  0  0  0  0  0  0
    5.4786  -22.5688   26.7308 C   0  0  0  0  0  0  0  0  0  0  0  0
    5.2389  -23.8895   26.2776 C   0  0  0  0  0  0  0  0  0  0  0  0
    6.4202  -24.5403   25.2196 Cl  0  0  0  0  0  0  0  0  0  0  0  0
    4.1370  -24.6367   26.6976 C   0  0  0  0  0  0  0  0  0  0  0  0
    3.2392  -24.1013   27.6081 C   0  0  0  0  0  0  0  0  0  0  0  0
    3.4420  -22.8034   28.0955 C   0  0  0  0  0  0  0  0  0  0  0  0
    4.5518  -22.0410   27.6285 C   0  0  0  0  0  0  0  0  0  0  0  0
    5.0325  -20.3799   27.9791 S   0  0  0  0  0  0  0  0  0  0  0  0
    7.9159  -15.5657   25.2143 C   0  0  0  0  0  0  0  0  0  0  0  0
    8.9527  -14.5323   25.2149 C   0  0  0  0  0  0  0  0  0  0  0  0
    8.6249  -13.3953   24.5017 C   0  0  0  0  0  0  0  0  0  0  0  0
    7.0649  -13.5141   23.8253 S   0  0  0  0  0  0  0  0  0  0  0  0
    6.8315  -15.0845   24.4976 C   0  0  0  0  0  0  0  0  0  0  0  0
    9.9009  -17.0974   24.4251 H   0  0  0  0  0  0  0  0  0  0  0  0
    9.3690  -18.6874   24.9406 H   0  0  0  0  0  0  0  0  0  0  0  0
    8.4332  -17.7994   23.7309 H   0  0  0  0  0  0  0  0  0  0  0  0
    8.7942  -16.9305   26.6568 H   0  0  0  0  0  0  0  0  0  0  0  0
    8.1080  -19.5541   26.1969 H   0  0  0  0  0  0  0  0  0  0  0  0
    4.0318  -25.6409   26.3228 H   0  0  0  0  0  0  0  0  0  0  0  0
    2.4015  -24.6943   27.9602 H   0  0  0  0  0  0  0  0  0  0  0  0
    2.7563  -22.3760   28.8212 H   0  0  0  0  0  0  0  0  0  0  0  0
    9.9179  -14.6587   25.6916 H   0  0  0  0  0  0  0  0  0  0  0  0
    9.2292  -12.5126   24.3447 H   0  0  0  0  0  0  0  0  0  0  0  0
    5.9011  -15.5931   24.2978 H   0  0  0  0  0  0  0  0  0  0  0  0
  1  2  1  0
  2  3  1  0
  3  4  2  0
  3  5  1  0
  5  6  1  0
  6  7  2  0
  7  8  1  0
  8  9  2  0
  9 10  1  0
  9 11  1  0
 11 12  2  0
 12 13  1  0
 13 14  2  0
 14 15  1  0
  2 16  1  0
 16 17  1  0
 17 18  2  0
 18 19  1  0
 19 20  1  0
 15  6  1  0
 20 16  2  0
 14  8  1  0
  1 21  1  0
  1 22  1  0
  1 23  1  0
  2 24  1  0
  5 25  1  0
 11 26  1  0
 12 27  1  0
 13 28  1  0
 17 29  1  0
 18 30  1  0
 20 31  1  0
M  END
>  <Energy>  (915) 
55.626991719110727

>  <compound_id>  (915) 
12293

>  <target_id>  (915) 
1

>  <reference_id>  (915) 
20

>  <inspiration_ids>  (915) 
[68, 20]

>  <energy_score>  (915) 
-57.43359697964752

>  <distance_score>  (915) 
18.295705583361265

>  <path>  (915) 
/opt/xchem-fragalysis-2/maxwin/BulkDock/SCRATCH/511015/C12293-P20/C12293-P20.minimised.mol

>  <scratch_subdir>  (915) 
/opt/xchem-fragalysis-2/maxwin/BulkDock/SCRATCH/511015/C12293-P20

>  <fragmenstein_runtime>  (915) 
7.995230436325073

>  <fragmenstein_outcome>  (915) 
too moved

>  <fragmenstein_mode>  (915) 
expansion

>  <fragmenstein_error>  (915) 


$$$$
C12294-P68
     RDKit          3D

 31 33  0  0  0  0  0  0  0  0999 V2000
   -2.1817  -16.1060   23.0319 O   0  0  0  0  0  0  0  0  0  0  0  0
   -2.4971  -16.1422   21.8706 C   0  0  0  0  0  0  0  0  0  0  0  0
   -1.8293  -14.9980   20.8910 C   0  0  0  0  0  0  0  0  0  0  0  0
   -0.3509  -14.4971   21.2636 C   0  0  0  0  0  0  0  0  0  0  0  0
    0.3956  -13.4326   20.4039 C   0  0  0  0  0  0  0  0  0  0  0  0
    0.6928  -12.0747   20.8281 C   0  0  0  0  0  0  0  0  0  0  0  0
    1.4942  -11.3677   19.9505 C   0  0  0  0  0  0  0  0  0  0  0  0
    1.9226  -12.3103   18.5959 S   0  0  0  0  0  0  0  0  0  0  0  0
    1.0321  -13.6601   19.1903 C   0  0  0  0  0  0  0  0  0  0  0  0
   -3.4610  -17.0210   21.1566 N   0  0  0  0  0  0  0  0  0  0  0  0
   -4.2187  -18.1293   21.6099 C   0  0  0  0  0  0  0  0  0  0  0  0
   -4.8491  -18.9732   20.7982 N   0  0  0  0  0  0  0  0  0  0  0  0
   -5.5942  -19.9688   21.4883 C   0  0  0  0  0  0  0  0  0  0  0  0
   -6.3568  -21.0665   20.9860 C   0  0  0  0  0  0  0  0  0  0  0  0
   -6.3438  -21.2719   19.2852 Cl  0  0  0  0  0  0  0  0  0  0  0  0
   -7.0956  -21.9300   21.8083 C   0  0  0  0  0  0  0  0  0  0  0  0
   -7.1216  -21.6933   23.1745 C   0  0  0  0  0  0  0  0  0  0  0  0
   -6.3807  -20.6271   23.7217 C   0  0  0  0  0  0  0  0  0  0  0  0
   -5.5895  -19.8013   22.8720 C   0  0  0  0  0  0  0  0  0  0  0  0
   -4.4712  -18.5100   23.2628 S   0  0  0  0  0  0  0  0  0  0  0  0
   -1.8593  -15.3348   19.8528 H   0  0  0  0  0  0  0  0  0  0  0  0
   -2.5017  -14.1329   20.9535 H   0  0  0  0  0  0  0  0  0  0  0  0
    0.2915  -15.3872   21.3005 H   0  0  0  0  0  0  0  0  0  0  0  0
   -0.3880  -14.1202   22.2943 H   0  0  0  0  0  0  0  0  0  0  0  0
    0.3411  -11.6514   21.7621 H   0  0  0  0  0  0  0  0  0  0  0  0
    1.8497  -10.3515   20.0499 H   0  0  0  0  0  0  0  0  0  0  0  0
    1.0441  -14.5787   18.6189 H   0  0  0  0  0  0  0  0  0  0  0  0
   -3.4147  -16.8292   20.1664 H   0  0  0  0  0  0  0  0  0  0  0  0
   -7.6606  -22.7529   21.3799 H   0  0  0  0  0  0  0  0  0  0  0  0
   -7.7042  -22.3372   23.8303 H   0  0  0  0  0  0  0  0  0  0  0  0
   -6.3750  -20.4582   24.7964 H   0  0  0  0  0  0  0  0  0  0  0  0
  1  2  2  0
  2  3  1  0
  3  4  1  0
  4  5  1  0
  5  6  1  0
  6  7  2  0
  7  8  1  0
  8  9  1  0
  2 10  1  0
 10 11  1  0
 11 12  2  0
 12 13  1  0
 13 14  2  0
 14 15  1  0
 14 16  1  0
 16 17  2  0
 17 18  1  0
 18 19  2  0
 19 20  1  0
  9  5  2  0
 20 11  1  0
 19 13  1  0
  3 21  1  0
  3 22  1  0
  4 23  1  0
  4 24  1  0
  6 25  1  0
  7 26  1  0
  9 27  1  0
 10 28  1  0
 16 29  1  0
 17 30  1  0
 18 31  1  0
M  END
>  <Energy>  (916) 
21.592226809333695

>  <compound_id>  (916) 
12294

>  <target_id>  (916) 
1

>  <reference_id>  (916) 
68

>  <inspiration_ids>  (916) 
[68, 20]

>  <energy_score>  (916) 
-35.781890473885284

>  <distance_score>  (916) 
16.737397998391607

>  <path>  (916) 
/opt/xchem-fragalysis-2/maxwin/BulkDock/SCRATCH/511015/C12294-P68/C12294-P68.minimised.mol

>  <scratch_subdir>  (916) 
/opt/xchem-fragalysis-2/maxwin/BulkDock/SCRATCH/511015/C12294-P68

>  <fragmenstein_runtime>  (916) 
18.373106718063354

>  <fragmenstein_outcome>  (916) 
too moved

>  <fragmenstein_mode>  (916) 
expansion

>  <fragmenstein_error>  (916) 


$$$$
C12294-P20
     RDKit          3D

 31 33  0  0  0  0  0  0  0  0999 V2000
   -3.0245  -17.6134   21.4040 O   0  0  0  0  0  0  0  0  0  0  0  0
   -3.0598  -17.8490   20.2252 C   0  0  0  0  0  0  0  0  0  0  0  0
   -2.1222  -16.9149   19.2285 C   0  0  0  0  0  0  0  0  0  0  0  0
   -1.0321  -15.9425   19.9080 C   0  0  0  0  0  0  0  0  0  0  0  0
   -0.1275  -14.9753   19.0726 C   0  0  0  0  0  0  0  0  0  0  0  0
    0.3174  -13.6700   19.5524 C   0  0  0  0  0  0  0  0  0  0  0  0
    1.1877  -13.0136   18.7033 C   0  0  0  0  0  0  0  0  0  0  0  0
    1.5097  -13.9403   17.3093 S   0  0  0  0  0  0  0  0  0  0  0  0
    0.4817  -15.2170   17.8504 C   0  0  0  0  0  0  0  0  0  0  0  0
   -3.8498  -18.8541   19.4612 N   0  0  0  0  0  0  0  0  0  0  0  0
   -4.7178  -19.8861   19.9046 C   0  0  0  0  0  0  0  0  0  0  0  0
   -5.2584  -20.2099   21.0670 N   0  0  0  0  0  0  0  0  0  0  0  0
   -6.0446  -21.4167   21.0023 C   0  0  0  0  0  0  0  0  0  0  0  0
   -6.8035  -22.0831   22.0093 C   0  0  0  0  0  0  0  0  0  0  0  0
   -7.0238  -21.2212   23.4737 Cl  0  0  0  0  0  0  0  0  0  0  0  0
   -7.3711  -23.3547   21.8259 C   0  0  0  0  0  0  0  0  0  0  0  0
   -7.2355  -23.9890   20.5991 C   0  0  0  0  0  0  0  0  0  0  0  0
   -6.5742  -23.3408   19.5453 C   0  0  0  0  0  0  0  0  0  0  0  0
   -5.9997  -22.0585   19.7624 C   0  0  0  0  0  0  0  0  0  0  0  0
   -5.1857  -21.0107   18.6506 S   0  0  0  0  0  0  0  0  0  0  0  0
   -2.8170  -16.2972   18.6473 H   0  0  0  0  0  0  0  0  0  0  0  0
   -1.6067  -17.5827   18.5324 H   0  0  0  0  0  0  0  0  0  0  0  0
   -0.3583  -16.5735   20.5013 H   0  0  0  0  0  0  0  0  0  0  0  0
   -1.5780  -15.3242   20.6333 H   0  0  0  0  0  0  0  0  0  0  0  0
    0.0045  -13.2506   20.5019 H   0  0  0  0  0  0  0  0  0  0  0  0
    1.6472  -12.0450   18.8428 H   0  0  0  0  0  0  0  0  0  0  0  0
    0.3966  -16.1063   17.2397 H   0  0  0  0  0  0  0  0  0  0  0  0
   -3.5696  -18.8295   18.4936 H   0  0  0  0  0  0  0  0  0  0  0  0
   -7.9200  -23.8322   22.6334 H   0  0  0  0  0  0  0  0  0  0  0  0
   -7.6712  -24.9743   20.4441 H   0  0  0  0  0  0  0  0  0  0  0  0
   -6.5090  -23.8153   18.5690 H   0  0  0  0  0  0  0  0  0  0  0  0
  1  2  2  0
  2  3  1  0
  3  4  1  0
  4  5  1  0
  5  6  1  0
  6  7  2  0
  7  8  1  0
  8  9  1  0
  2 10  1  0
 10 11  1  0
 11 12  2  0
 12 13  1  0
 13 14  2  0
 14 15  1  0
 14 16  1  0
 16 17  2  0
 17 18  1  0
 18 19  2  0
 19 20  1  0
  9  5  2  0
 20 11  1  0
 19 13  1  0
  3 21  1  0
  3 22  1  0
  4 23  1  0
  4 24  1  0
  6 25  1  0
  7 26  1  0
  9 27  1  0
 10 28  1  0
 16 29  1  0
 17 30  1  0
 18 31  1  0
M  END
>  <Energy>  (917) 
28.112571974720552

>  <compound_id>  (917) 
12294

>  <target_id>  (917) 
1

>  <reference_id>  (917) 
20

>  <inspiration_ids>  (917) 
[68, 20]

>  <energy_score>  (917) 
-29.26154530849925

>  <distance_score>  (917) 
16.382954776766404

>  <path>  (917) 
/opt/xchem-fragalysis-2/maxwin/BulkDock/SCRATCH/511015/C12294-P20/C12294-P20.minimised.mol

>  <scratch_subdir>  (917) 
/opt/xchem-fragalysis-2/maxwin/BulkDock/SCRATCH/511015/C12294-P20

>  <fragmenstein_runtime>  (917) 
8.85365080833435

>  <fragmenstein_outcome>  (917) 
too moved

>  <fragmenstein_mode>  (917) 
expansion

>  <fragmenstein_error>  (917) 


$$$$
C12296-P68
     RDKit          3D

 35 37  0  0  0  0  0  0  0  0999 V2000
    1.1707  -15.9173   15.4757 C   0  0  0  0  0  0  0  0  0  0  0  0
    2.4442  -16.6826   15.4407 N   0  0  0  0  0  0  0  0  0  0  0  0
    2.2093  -18.1102   16.1104 C   0  0  0  0  0  0  0  0  0  0  0  0
    1.0039  -19.0714   15.6061 C   0  0  0  0  0  0  0  0  0  0  0  0
   -0.3057  -18.8566   15.7204 N   0  0  0  0  0  0  0  0  0  0  0  0
   -1.0775  -19.9700   15.2932 C   0  0  0  0  0  0  0  0  0  0  0  0
   -2.4989  -20.1060   15.3234 C   0  0  0  0  0  0  0  0  0  0  0  0
   -3.1315  -21.3001   14.9366 C   0  0  0  0  0  0  0  0  0  0  0  0
   -2.3699  -22.3327   14.4189 C   0  0  0  0  0  0  0  0  0  0  0  0
   -0.9730  -22.1991   14.3231 C   0  0  0  0  0  0  0  0  0  0  0  0
   -0.3365  -21.0517   14.8379 C   0  0  0  0  0  0  0  0  0  0  0  0
    1.3491  -20.6856   15.0164 S   0  0  0  0  0  0  0  0  0  0  0  0
    3.8305  -15.7589   16.2125 S   0  0  0  0  0  0  0  0  0  0  0  0
    4.9784  -16.6379   16.1076 O   0  0  0  0  0  0  0  0  0  0  0  0
    3.3390  -15.3514   17.5151 O   0  0  0  0  0  0  0  0  0  0  0  0
    4.1398  -14.2367   15.1615 C   0  0  0  0  0  0  0  0  0  0  0  0
    5.2074  -13.2124   15.6039 C   0  0  0  0  0  0  0  0  0  0  0  0
    6.1090  -12.5437   14.6825 C   0  0  0  0  0  0  0  0  0  0  0  0
    6.8944  -11.5738   15.2710 C   0  0  0  0  0  0  0  0  0  0  0  0
    6.5716  -11.4344   16.9386 S   0  0  0  0  0  0  0  0  0  0  0  0
    5.3861  -12.6797   16.8712 C   0  0  0  0  0  0  0  0  0  0  0  0
    0.4435  -16.3845   14.8056 H   0  0  0  0  0  0  0  0  0  0  0  0
    1.3201  -14.9002   15.1081 H   0  0  0  0  0  0  0  0  0  0  0  0
    0.7571  -15.8810   16.4874 H   0  0  0  0  0  0  0  0  0  0  0  0
    3.1459  -18.6668   15.9913 H   0  0  0  0  0  0  0  0  0  0  0  0
    2.0272  -17.9435   17.1778 H   0  0  0  0  0  0  0  0  0  0  0  0
   -3.0881  -19.2746   15.7004 H   0  0  0  0  0  0  0  0  0  0  0  0
   -4.2122  -21.3878   15.0028 H   0  0  0  0  0  0  0  0  0  0  0  0
   -2.8507  -23.2386   14.0576 H   0  0  0  0  0  0  0  0  0  0  0  0
   -0.3715  -22.9746   13.8584 H   0  0  0  0  0  0  0  0  0  0  0  0
    4.3913  -14.6248   14.1684 H   0  0  0  0  0  0  0  0  0  0  0  0
    3.1825  -13.7094   15.1111 H   0  0  0  0  0  0  0  0  0  0  0  0
    6.1584  -12.7589   13.6209 H   0  0  0  0  0  0  0  0  0  0  0  0
    7.6328  -10.9433   14.7940 H   0  0  0  0  0  0  0  0  0  0  0  0
    4.8561  -12.9405   17.7786 H   0  0  0  0  0  0  0  0  0  0  0  0
  1  2  1  0
  2  3  1  0
  3  4  1  0
  4  5  2  0
  5  6  1  0
  6  7  2  0
  7  8  1  0
  8  9  2  0
  9 10  1  0
 10 11  2  0
 11 12  1  0
  2 13  1  0
 13 14  2  0
 13 15  2  0
 13 16  1  0
 16 17  1  0
 17 18  1  0
 18 19  2  0
 19 20  1  0
 20 21  1  0
 12  4  1  0
 21 17  2  0
 11  6  1  0
  1 22  1  0
  1 23  1  0
  1 24  1  0
  3 25  1  0
  3 26  1  0
  7 27  1  0
  8 28  1  0
  9 29  1  0
 10 30  1  0
 16 31  1  0
 16 32  1  0
 18 33  1  0
 19 34  1  0
 21 35  1  0
M  END
>  <Energy>  (918) 
30.073353815888666

>  <compound_id>  (918) 
12296

>  <target_id>  (918) 
1

>  <reference_id>  (918) 
68

>  <inspiration_ids>  (918) 
[68, 20]

>  <energy_score>  (918) 
-76.827461925271

>  <distance_score>  (918) 
16.819997202728484

>  <path>  (918) 
/opt/xchem-fragalysis-2/maxwin/BulkDock/SCRATCH/511015/C12296-P68/C12296-P68.minimised.mol

>  <scratch_subdir>  (918) 
/opt/xchem-fragalysis-2/maxwin/BulkDock/SCRATCH/511015/C12296-P68

>  <fragmenstein_runtime>  (918) 
11.781640768051147

>  <fragmenstein_outcome>  (918) 
too moved

>  <fragmenstein_mode>  (918) 
expansion

>  <fragmenstein_error>  (918) 


$$$$
C12296-P20
     RDKit          3D

 35 37  0  0  0  0  0  0  0  0999 V2000
    3.8887  -21.3611   17.3916 C   0  0  0  0  0  0  0  0  0  0  0  0
    3.9348  -21.1247   18.9453 N   0  0  0  0  0  0  0  0  0  0  0  0
    2.0930  -21.2569   19.7183 C   0  0  0  0  0  0  0  0  0  0  0  0
    1.2086  -23.1451   19.8488 C   0  0  0  0  0  0  0  0  0  0  0  0
    0.4335  -23.8906   20.6541 N   0  0  0  0  0  0  0  0  0  0  0  0
    0.3463  -25.4867   20.5353 C   0  0  0  0  0  0  0  0  0  0  0  0
   -0.6219  -26.4684   21.0317 C   0  0  0  0  0  0  0  0  0  0  0  0
   -0.3771  -27.8474   21.1139 C   0  0  0  0  0  0  0  0  0  0  0  0
    0.8339  -28.3240   20.6656 C   0  0  0  0  0  0  0  0  0  0  0  0
    1.7393  -27.4424   20.0523 C   0  0  0  0  0  0  0  0  0  0  0  0
    1.4299  -26.0553   19.9437 C   0  0  0  0  0  0  0  0  0  0  0  0
    2.0510  -24.8970   18.8765 S   0  0  0  0  0  0  0  0  0  0  0  0
    5.8681  -21.3020   19.9136 S   0  0  0  0  0  0  0  0  0  0  0  0
    6.4219  -20.0159   20.3116 O   0  0  0  0  0  0  0  0  0  0  0  0
    5.6859  -22.3446   20.8697 O   0  0  0  0  0  0  0  0  0  0  0  0
    7.3278  -21.6858   18.4626 C   0  0  0  0  0  0  0  0  0  0  0  0
    8.1447  -20.3352   17.9986 C   0  0  0  0  0  0  0  0  0  0  0  0
    8.1965  -19.8136   16.6406 C   0  0  0  0  0  0  0  0  0  0  0  0
    8.8219  -18.5835   16.5271 C   0  0  0  0  0  0  0  0  0  0  0  0
    9.4024  -18.0288   18.0297 S   0  0  0  0  0  0  0  0  0  0  0  0
    8.8485  -19.4558   18.8201 C   0  0  0  0  0  0  0  0  0  0  0  0
    4.8797  -21.2798   16.9422 H   0  0  0  0  0  0  0  0  0  0  0  0
    3.5219  -22.3465   17.0929 H   0  0  0  0  0  0  0  0  0  0  0  0
    3.2279  -20.6100   16.9480 H   0  0  0  0  0  0  0  0  0  0  0  0
    2.1277  -20.4948   20.4946 H   0  0  0  0  0  0  0  0  0  0  0  0
    1.7774  -20.8301   18.7593 H   0  0  0  0  0  0  0  0  0  0  0  0
   -1.6045  -26.1575   21.3704 H   0  0  0  0  0  0  0  0  0  0  0  0
   -1.1317  -28.5160   21.5178 H   0  0  0  0  0  0  0  0  0  0  0  0
    1.0591  -29.3867   20.7045 H   0  0  0  0  0  0  0  0  0  0  0  0
    2.6253  -27.8340   19.5583 H   0  0  0  0  0  0  0  0  0  0  0  0
    6.8342  -22.1794   17.6245 H   0  0  0  0  0  0  0  0  0  0  0  0
    8.0244  -22.3560   18.9762 H   0  0  0  0  0  0  0  0  0  0  0  0
    7.7583  -20.3186   15.7873 H   0  0  0  0  0  0  0  0  0  0  0  0
    8.9679  -17.9920   15.6332 H   0  0  0  0  0  0  0  0  0  0  0  0
    9.0142  -19.5343   19.8857 H   0  0  0  0  0  0  0  0  0  0  0  0
  1  2  1  0
  2  3  1  0
  3  4  1  0
  4  5  2  0
  5  6  1  0
  6  7  2  0
  7  8  1  0
  8  9  2  0
  9 10  1  0
 10 11  2  0
 11 12  1  0
  2 13  1  0
 13 14  2  0
 13 15  2  0
 13 16  1  0
 16 17  1  0
 17 18  1  0
 18 19  2  0
 19 20  1  0
 20 21  1  0
 12  4  1  0
 21 17  2  0
 11  6  1  0
  1 22  1  0
  1 23  1  0
  1 24  1  0
  3 25  1  0
  3 26  1  0
  7 27  1  0
  8 28  1  0
  9 29  1  0
 10 30  1  0
 16 31  1  0
 16 32  1  0
 18 33  1  0
 19 34  1  0
 21 35  1  0
M  END
>  <Energy>  (919) 
346.66382843915937

>  <compound_id>  (919) 
12296

>  <target_id>  (919) 
1

>  <reference_id>  (919) 
20

>  <inspiration_ids>  (919) 
[68, 20]

>  <energy_score>  (919) 
239.76301269799967

>  <distance_score>  (919) 
16.34601377772758

>  <path>  (919) 
/opt/xchem-fragalysis-2/maxwin/BulkDock/SCRATCH/511015/C12296-P20/C12296-P20.minimised.mol

>  <scratch_subdir>  (919) 
/opt/xchem-fragalysis-2/maxwin/BulkDock/SCRATCH/511015/C12296-P20

>  <fragmenstein_runtime>  (919) 
6.841952562332153

>  <fragmenstein_outcome>  (919) 
too moved

>  <fragmenstein_mode>  (919) 
expansion

>  <fragmenstein_error>  (919) 


$$$$
C12297-P68
     RDKit          3D

 34 36  0  0  0  0  0  0  0  0999 V2000
    3.5007  -24.8414   16.7485 O   0  0  0  0  0  0  0  0  0  0  0  0
    2.9075  -24.0587   17.4063 C   0  0  0  0  0  0  0  0  0  0  0  0
    2.9536  -22.4291   17.3211 N   0  0  0  0  0  0  0  0  0  0  0  0
    3.8452  -21.4779   16.4493 C   0  0  0  0  0  0  0  0  0  0  0  0
    3.5502  -19.8593   16.1106 C   0  0  0  0  0  0  0  0  0  0  0  0
    2.7233  -19.2347   17.0938 O   0  0  0  0  0  0  0  0  0  0  0  0
    4.7082  -18.8365   15.7557 C   0  0  0  0  0  0  0  0  0  0  0  0
    4.5011  -17.3810   15.7536 C   0  0  0  0  0  0  0  0  0  0  0  0
    5.6222  -16.6369   15.4485 C   0  0  0  0  0  0  0  0  0  0  0  0
    6.9574  -17.6475   15.1346 S   0  0  0  0  0  0  0  0  0  0  0  0
    6.0225  -19.0785   15.3905 C   0  0  0  0  0  0  0  0  0  0  0  0
    1.9264  -24.2852   18.5775 N   0  0  0  0  0  0  0  0  0  0  0  0
    1.5366  -25.4905   19.2534 C   0  0  0  0  0  0  0  0  0  0  0  0
    1.7024  -26.8142   19.2769 N   0  0  0  0  0  0  0  0  0  0  0  0
    0.5149  -27.4952   19.8277 C   0  0  0  0  0  0  0  0  0  0  0  0
   -0.0289  -28.8031   19.5823 C   0  0  0  0  0  0  0  0  0  0  0  0
    0.5854  -29.6311   18.7218 F   0  0  0  0  0  0  0  0  0  0  0  0
   -1.1827  -29.2634   20.2304 C   0  0  0  0  0  0  0  0  0  0  0  0
   -1.8194  -28.4343   21.1342 C   0  0  0  0  0  0  0  0  0  0  0  0
   -1.3431  -27.1390   21.3639 C   0  0  0  0  0  0  0  0  0  0  0  0
   -0.1921  -26.6876   20.6806 C   0  0  0  0  0  0  0  0  0  0  0  0
    0.6637  -25.2033   20.6505 S   0  0  0  0  0  0  0  0  0  0  0  0
    2.4009  -22.0384   18.0694 H   0  0  0  0  0  0  0  0  0  0  0  0
    4.8436  -21.5626   16.8798 H   0  0  0  0  0  0  0  0  0  0  0  0
    3.9323  -21.9889   15.4820 H   0  0  0  0  0  0  0  0  0  0  0  0
    2.9426  -19.8909   15.1939 H   0  0  0  0  0  0  0  0  0  0  0  0
    1.8225  -19.5689   16.9165 H   0  0  0  0  0  0  0  0  0  0  0  0
    3.5445  -16.9302   15.9944 H   0  0  0  0  0  0  0  0  0  0  0  0
    5.7120  -15.5607   15.3959 H   0  0  0  0  0  0  0  0  0  0  0  0
    6.5037  -20.0383   15.2634 H   0  0  0  0  0  0  0  0  0  0  0  0
    1.6645  -23.4015   18.9687 H   0  0  0  0  0  0  0  0  0  0  0  0
   -1.5321  -30.2744   20.0426 H   0  0  0  0  0  0  0  0  0  0  0  0
   -2.6760  -28.7850   21.6918 H   0  0  0  0  0  0  0  0  0  0  0  0
   -1.8711  -26.4980   22.0603 H   0  0  0  0  0  0  0  0  0  0  0  0
  1  2  2  0
  2  3  1  0
  3  4  1  0
  4  5  1  0
  5  6  1  0
  5  7  1  0
  7  8  1  0
  8  9  2  0
  9 10  1  0
 10 11  1  0
  2 12  1  0
 12 13  1  0
 13 14  2  0
 14 15  1  0
 15 16  2  0
 16 17  1  0
 16 18  1  0
 18 19  2  0
 19 20  1  0
 20 21  2  0
 21 22  1  0
 11  7  2  0
 22 13  1  0
 21 15  1  0
  3 23  1  0
  4 24  1  0
  4 25  1  0
  5 26  1  0
  6 27  1  0
  8 28  1  0
  9 29  1  0
 11 30  1  0
 12 31  1  0
 18 32  1  0
 19 33  1  0
 20 34  1  0
M  END
>  <Energy>  (920) 
59.610821423190934

>  <compound_id>  (920) 
12297

>  <target_id>  (920) 
1

>  <reference_id>  (920) 
68

>  <inspiration_ids>  (920) 
[68, 20]

>  <energy_score>  (920) 
8.178590143159681

>  <distance_score>  (920) 
15.519550635693056

>  <path>  (920) 
/opt/xchem-fragalysis-2/maxwin/BulkDock/SCRATCH/511015/C12297-P68/C12297-P68.minimised.mol

>  <scratch_subdir>  (920) 
/opt/xchem-fragalysis-2/maxwin/BulkDock/SCRATCH/511015/C12297-P68

>  <fragmenstein_runtime>  (920) 
15.505177021026611

>  <fragmenstein_outcome>  (920) 
too moved

>  <fragmenstein_mode>  (920) 
expansion

>  <fragmenstein_error>  (920) 


$$$$
C12297-P20
     RDKit          3D

 34 36  0  0  0  0  0  0  0  0999 V2000
   -0.6858  -15.1977   21.6829 O   0  0  0  0  0  0  0  0  0  0  0  0
   -0.5939  -15.4798   20.5427 C   0  0  0  0  0  0  0  0  0  0  0  0
    0.2685  -14.7683   19.4155 N   0  0  0  0  0  0  0  0  0  0  0  0
    1.1259  -13.4770   19.4635 C   0  0  0  0  0  0  0  0  0  0  0  0
    2.5980  -13.3289   18.7761 C   0  0  0  0  0  0  0  0  0  0  0  0
    3.6081  -13.9300   19.5966 O   0  0  0  0  0  0  0  0  0  0  0  0
    3.1286  -11.9085   18.4190 C   0  0  0  0  0  0  0  0  0  0  0  0
    3.0539  -10.7129   19.2242 C   0  0  0  0  0  0  0  0  0  0  0  0
    3.7459   -9.6391   18.6925 C   0  0  0  0  0  0  0  0  0  0  0  0
    4.5124  -10.0370   17.2221 S   0  0  0  0  0  0  0  0  0  0  0  0
    3.9171  -11.6441   17.3013 C   0  0  0  0  0  0  0  0  0  0  0  0
   -1.3463  -16.5596   19.7238 N   0  0  0  0  0  0  0  0  0  0  0  0
   -2.3120  -17.5242   20.1276 C   0  0  0  0  0  0  0  0  0  0  0  0
   -2.9729  -18.3523   19.3192 N   0  0  0  0  0  0  0  0  0  0  0  0
   -3.9043  -19.1793   20.0151 C   0  0  0  0  0  0  0  0  0  0  0  0
   -4.8315  -20.1335   19.4938 C   0  0  0  0  0  0  0  0  0  0  0  0
   -4.8890  -20.3570   18.1718 F   0  0  0  0  0  0  0  0  0  0  0  0
   -5.7284  -20.8389   20.3106 C   0  0  0  0  0  0  0  0  0  0  0  0
   -5.7291  -20.6057   21.6751 C   0  0  0  0  0  0  0  0  0  0  0  0
   -4.8103  -19.6981   22.2336 C   0  0  0  0  0  0  0  0  0  0  0  0
   -3.9114  -18.9905   21.3929 C   0  0  0  0  0  0  0  0  0  0  0  0
   -2.7259  -17.7704   21.7834 S   0  0  0  0  0  0  0  0  0  0  0  0
    0.0702  -15.1958   18.5245 H   0  0  0  0  0  0  0  0  0  0  0  0
    1.2189  -13.2398   20.5292 H   0  0  0  0  0  0  0  0  0  0  0  0
    0.4741  -12.7236   19.0070 H   0  0  0  0  0  0  0  0  0  0  0  0
    2.5577  -13.9131   17.8483 H   0  0  0  0  0  0  0  0  0  0  0  0
    3.8301  -13.2948   20.2984 H   0  0  0  0  0  0  0  0  0  0  0  0
    2.5268  -10.6490   20.1694 H   0  0  0  0  0  0  0  0  0  0  0  0
    3.8406   -8.6447   19.1074 H   0  0  0  0  0  0  0  0  0  0  0  0
    4.2010  -12.3427   16.5251 H   0  0  0  0  0  0  0  0  0  0  0  0
   -0.9728  -16.5943   18.7940 H   0  0  0  0  0  0  0  0  0  0  0  0
   -6.4258  -21.5381   19.8604 H   0  0  0  0  0  0  0  0  0  0  0  0
   -6.4346  -21.1262   22.3188 H   0  0  0  0  0  0  0  0  0  0  0  0
   -4.8005  -19.5132   23.3056 H   0  0  0  0  0  0  0  0  0  0  0  0
  1  2  2  0
  2  3  1  0
  3  4  1  0
  4  5  1  0
  5  6  1  0
  5  7  1  0
  7  8  1  0
  8  9  2  0
  9 10  1  0
 10 11  1  0
  2 12  1  0
 12 13  1  0
 13 14  2  0
 14 15  1  0
 15 16  2  0
 16 17  1  0
 16 18  1  0
 18 19  2  0
 19 20  1  0
 20 21  2  0
 21 22  1  0
 11  7  2  0
 22 13  1  0
 21 15  1  0
  3 23  1  0
  4 24  1  0
  4 25  1  0
  5 26  1  0
  6 27  1  0
  8 28  1  0
  9 29  1  0
 11 30  1  0
 12 31  1  0
 18 32  1  0
 19 33  1  0
 20 34  1  0
M  END
>  <Energy>  (921) 
15.184397666725433

>  <compound_id>  (921) 
12297

>  <target_id>  (921) 
1

>  <reference_id>  (921) 
20

>  <inspiration_ids>  (921) 
[68, 20]

>  <energy_score>  (921) 
-36.247833613306966

>  <distance_score>  (921) 
16.053448747073087

>  <path>  (921) 
/opt/xchem-fragalysis-2/maxwin/BulkDock/SCRATCH/511015/C12297-P20/C12297-P20.minimised.mol

>  <scratch_subdir>  (921) 
/opt/xchem-fragalysis-2/maxwin/BulkDock/SCRATCH/511015/C12297-P20

>  <fragmenstein_runtime>  (921) 
16.842559576034546

>  <fragmenstein_outcome>  (921) 
too moved

>  <fragmenstein_mode>  (921) 
expansion

>  <fragmenstein_error>  (921) 


$$$$
C12298-P68
     RDKit          3D

 41 43  0  0  0  0  0  0  0  0999 V2000
    2.0340  -28.6238   32.0467 C   0  0  0  0  0  0  0  0  0  0  0  0
    0.9959  -27.8180   31.5060 O   0  0  0  0  0  0  0  0  0  0  0  0
    1.4863  -26.9760   30.4598 C   0  0  0  0  0  0  0  0  0  0  0  0
    0.3643  -26.1238   29.9232 C   0  0  0  0  0  0  0  0  0  0  0  0
   -0.8842  -26.7386   29.6107 C   0  0  0  0  0  0  0  0  0  0  0  0
   -1.9551  -26.0032   29.1209 C   0  0  0  0  0  0  0  0  0  0  0  0
   -1.8316  -24.6199   28.9870 C   0  0  0  0  0  0  0  0  0  0  0  0
   -0.5878  -24.0071   29.2864 C   0  0  0  0  0  0  0  0  0  0  0  0
   -0.1778  -22.3275   29.3625 S   0  0  0  0  0  0  0  0  0  0  0  0
    1.5278  -22.6508   29.5035 C   0  0  0  0  0  0  0  0  0  0  0  0
    2.2959  -21.4699   29.3382 N   0  0  0  0  0  0  0  0  0  0  0  0
    3.8001  -21.2800   29.0311 C   0  0  0  0  0  0  0  0  0  0  0  0
    4.6642  -22.0793   28.9433 O   0  0  0  0  0  0  0  0  0  0  0  0
    3.8609  -19.6977   28.7530 N   0  0  0  0  0  0  0  0  0  0  0  0
    5.0533  -18.7848   28.4054 C   0  0  0  0  0  0  0  0  0  0  0  0
    6.3890  -19.5045   28.0759 C   0  0  0  0  0  0  0  0  0  0  0  0
    7.4865  -18.6179   27.8617 O   0  0  0  0  0  0  0  0  0  0  0  0
    4.8558  -17.5845   27.3536 C   0  0  0  0  0  0  0  0  0  0  0  0
    5.3002  -16.2087   27.6104 C   0  0  0  0  0  0  0  0  0  0  0  0
    5.2692  -15.3721   26.5092 C   0  0  0  0  0  0  0  0  0  0  0  0
    4.7040  -16.1895   25.1257 S   0  0  0  0  0  0  0  0  0  0  0  0
    4.5115  -17.6626   26.0093 C   0  0  0  0  0  0  0  0  0  0  0  0
    1.7581  -23.9421   29.6880 N   0  0  0  0  0  0  0  0  0  0  0  0
    0.5436  -24.7266   29.6591 C   0  0  0  0  0  0  0  0  0  0  0  0
    1.6081  -29.2508   32.8345 H   0  0  0  0  0  0  0  0  0  0  0  0
    2.8176  -27.9977   32.4841 H   0  0  0  0  0  0  0  0  0  0  0  0
    2.4575  -29.2730   31.2741 H   0  0  0  0  0  0  0  0  0  0  0  0
    1.8846  -27.5949   29.6486 H   0  0  0  0  0  0  0  0  0  0  0  0
    2.2803  -26.3384   30.8625 H   0  0  0  0  0  0  0  0  0  0  0  0
   -1.0002  -27.8111   29.7647 H   0  0  0  0  0  0  0  0  0  0  0  0
   -2.8962  -26.4957   28.8910 H   0  0  0  0  0  0  0  0  0  0  0  0
   -2.6848  -24.0211   28.6824 H   0  0  0  0  0  0  0  0  0  0  0  0
    1.8573  -20.5763   29.4201 H   0  0  0  0  0  0  0  0  0  0  0  0
    2.9808  -19.2816   28.9959 H   0  0  0  0  0  0  0  0  0  0  0  0
    5.2183  -18.2596   29.3575 H   0  0  0  0  0  0  0  0  0  0  0  0
    6.2840  -20.1656   27.2184 H   0  0  0  0  0  0  0  0  0  0  0  0
    6.6615  -20.1447   28.9221 H   0  0  0  0  0  0  0  0  0  0  0  0
    7.3379  -18.2018   26.9919 H   0  0  0  0  0  0  0  0  0  0  0  0
    5.6763  -15.8824   28.5740 H   0  0  0  0  0  0  0  0  0  0  0  0
    5.5625  -14.3326   26.4586 H   0  0  0  0  0  0  0  0  0  0  0  0
    4.2018  -18.5399   25.4581 H   0  0  0  0  0  0  0  0  0  0  0  0
  1  2  1  0
  2  3  1  0
  3  4  1  0
  4  5  2  0
  5  6  1  0
  6  7  2  0
  7  8  1  0
  8  9  1  0
  9 10  1  0
 10 11  1  0
 11 12  1  0
 12 13  2  0
 12 14  1  0
 14 15  1  0
 15 16  1  0
 16 17  1  0
 15 18  1  0
 18 19  1  0
 19 20  2  0
 20 21  1  0
 21 22  1  0
 10 23  2  0
 23 24  1  0
 24  4  1  0
 24  8  2  0
 22 18  2  0
  1 25  1  0
  1 26  1  0
  1 27  1  0
  3 28  1  0
  3 29  1  0
  5 30  1  0
  6 31  1  0
  7 32  1  0
 11 33  1  0
 14 34  1  0
 15 35  1  0
 16 36  1  0
 16 37  1  0
 17 38  1  0
 19 39  1  0
 20 40  1  0
 22 41  1  0
M  END
>  <Energy>  (922) 
18.316766869062043

>  <compound_id>  (922) 
12298

>  <target_id>  (922) 
1

>  <reference_id>  (922) 
68

>  <inspiration_ids>  (922) 
[68, 20]

>  <energy_score>  (922) 
-36.869577990228834

>  <distance_score>  (922) 
17.835270483796666

>  <path>  (922) 
/opt/xchem-fragalysis-2/maxwin/BulkDock/SCRATCH/511015/C12298-P68/C12298-P68.minimised.mol

>  <scratch_subdir>  (922) 
/opt/xchem-fragalysis-2/maxwin/BulkDock/SCRATCH/511015/C12298-P68

>  <fragmenstein_runtime>  (922) 
22.777852773666382

>  <fragmenstein_outcome>  (922) 
too moved

>  <fragmenstein_mode>  (922) 
expansion

>  <fragmenstein_error>  (922) 


$$$$
C12298-P20
     RDKit          3D

 41 43  0  0  0  0  0  0  0  0999 V2000
    4.5950  -27.9651   12.2470 C   0  0  0  0  0  0  0  0  0  0  0  0
    3.1790  -28.1046   12.2457 O   0  0  0  0  0  0  0  0  0  0  0  0
    2.5381  -27.0848   13.0174 C   0  0  0  0  0  0  0  0  0  0  0  0
    2.5507  -27.4163   14.4904 C   0  0  0  0  0  0  0  0  0  0  0  0
    1.9891  -28.6560   14.9237 C   0  0  0  0  0  0  0  0  0  0  0  0
    1.9726  -29.0253   16.2604 C   0  0  0  0  0  0  0  0  0  0  0  0
    2.5078  -28.1576   17.2063 C   0  0  0  0  0  0  0  0  0  0  0  0
    2.9951  -26.8965   16.7797 C   0  0  0  0  0  0  0  0  0  0  0  0
    3.5820  -25.6219   17.7318 S   0  0  0  0  0  0  0  0  0  0  0  0
    3.6925  -24.4760   16.3516 C   0  0  0  0  0  0  0  0  0  0  0  0
    3.8202  -23.2415   16.9871 N   0  0  0  0  0  0  0  0  0  0  0  0
    4.1140  -21.8366   16.4241 C   0  0  0  0  0  0  0  0  0  0  0  0
    4.3808  -21.4874   15.3134 O   0  0  0  0  0  0  0  0  0  0  0  0
    3.8701  -20.9636   17.7620 N   0  0  0  0  0  0  0  0  0  0  0  0
    3.7967  -19.2561   17.9938 C   0  0  0  0  0  0  0  0  0  0  0  0
    2.6939  -18.8815   16.5754 C   0  0  0  0  0  0  0  0  0  0  0  0
    1.8855  -20.0352   16.3290 O   0  0  0  0  0  0  0  0  0  0  0  0
    5.4408  -17.6735   18.8731 C   0  0  0  0  0  0  0  0  0  0  0  0
    7.0710  -17.8422   19.2290 C   0  0  0  0  0  0  0  0  0  0  0  0
    7.7703  -16.6727   19.4387 C   0  0  0  0  0  0  0  0  0  0  0  0
    6.8452  -15.2660   19.3087 S   0  0  0  0  0  0  0  0  0  0  0  0
    5.3965  -16.1014   18.9722 C   0  0  0  0  0  0  0  0  0  0  0  0
    3.5566  -25.1233   15.2166 N   0  0  0  0  0  0  0  0  0  0  0  0
    3.0542  -26.4881   15.4519 C   0  0  0  0  0  0  0  0  0  0  0  0
    4.9980  -28.0576   13.2598 H   0  0  0  0  0  0  0  0  0  0  0  0
    5.0169  -28.7661   11.6338 H   0  0  0  0  0  0  0  0  0  0  0  0
    4.8866  -27.0050   11.8103 H   0  0  0  0  0  0  0  0  0  0  0  0
    1.4944  -27.0329   12.6869 H   0  0  0  0  0  0  0  0  0  0  0  0
    2.9872  -26.1072   12.8070 H   0  0  0  0  0  0  0  0  0  0  0  0
    1.5836  -29.3379   14.1767 H   0  0  0  0  0  0  0  0  0  0  0  0
    1.5528  -29.9793   16.5644 H   0  0  0  0  0  0  0  0  0  0  0  0
    2.4918  -28.4125   18.2612 H   0  0  0  0  0  0  0  0  0  0  0  0
    3.5558  -23.1673   17.9288 H   0  0  0  0  0  0  0  0  0  0  0  0
    3.5850  -21.5570   18.5012 H   0  0  0  0  0  0  0  0  0  0  0  0
    5.0344  -18.0948   18.8737 H   0  0  0  0  0  0  0  0  0  0  0  0
    1.9774  -18.0827   16.8120 H   0  0  0  0  0  0  0  0  0  0  0  0
    3.2741  -18.7038   15.6603 H   0  0  0  0  0  0  0  0  0  0  0  0
    1.2293  -19.8200   15.6338 H   0  0  0  0  0  0  0  0  0  0  0  0
    7.5465  -18.8155   19.2640 H   0  0  0  0  0  0  0  0  0  0  0  0
    8.8235  -16.5903   19.6689 H   0  0  0  0  0  0  0  0  0  0  0  0
    4.5195  -15.4932   18.7883 H   0  0  0  0  0  0  0  0  0  0  0  0
  1  2  1  0
  2  3  1  0
  3  4  1  0
  4  5  2  0
  5  6  1  0
  6  7  2  0
  7  8  1  0
  8  9  1  0
  9 10  1  0
 10 11  1  0
 11 12  1  0
 12 13  2  0
 12 14  1  0
 14 15  1  0
 15 16  1  0
 16 17  1  0
 15 18  1  0
 18 19  1  0
 19 20  2  0
 20 21  1  0
 21 22  1  0
 10 23  2  0
 23 24  1  0
 24  4  1  0
 24  8  2  0
 22 18  2  0
  1 25  1  0
  1 26  1  0
  1 27  1  0
  3 28  1  0
  3 29  1  0
  5 30  1  0
  6 31  1  0
  7 32  1  0
 11 33  1  0
 14 34  1  0
 15 35  1  0
 16 36  1  0
 16 37  1  0
 17 38  1  0
 19 39  1  0
 20 40  1  0
 22 41  1  0
M  END
>  <Energy>  (923) 
937.82028587597461

>  <compound_id>  (923) 
12298

>  <target_id>  (923) 
1

>  <reference_id>  (923) 
20

>  <inspiration_ids>  (923) 
[68, 20]

>  <energy_score>  (923) 
882.6339410166863

>  <distance_score>  (923) 
17.0889343275253

>  <path>  (923) 
/opt/xchem-fragalysis-2/maxwin/BulkDock/SCRATCH/511015/C12298-P20/C12298-P20.minimised.mol

>  <scratch_subdir>  (923) 
/opt/xchem-fragalysis-2/maxwin/BulkDock/SCRATCH/511015/C12298-P20

>  <fragmenstein_runtime>  (923) 
10.024757623672485

>  <fragmenstein_outcome>  (923) 
too moved

>  <fragmenstein_mode>  (923) 
expansion

>  <fragmenstein_error>  (923) 


$$$$
C12299-P68
     RDKit          3D

 38 40  0  0  0  0  0  0  0  0999 V2000
   -5.9791  -22.7754   14.0456 C   0  0  0  0  0  0  0  0  0  0  0  0
   -4.9753  -22.9052   15.0533 O   0  0  0  0  0  0  0  0  0  0  0  0
   -5.3835  -22.2614   16.2019 C   0  0  0  0  0  0  0  0  0  0  0  0
   -6.0520  -23.0120   17.1870 C   0  0  0  0  0  0  0  0  0  0  0  0
   -6.4170  -22.4162   18.3869 C   0  0  0  0  0  0  0  0  0  0  0  0
   -6.0784  -21.0717   18.6251 C   0  0  0  0  0  0  0  0  0  0  0  0
   -5.3419  -20.3075   17.6659 C   0  0  0  0  0  0  0  0  0  0  0  0
   -4.7680  -19.0125   17.8412 N   0  0  0  0  0  0  0  0  0  0  0  0
   -3.9850  -18.6501   16.8262 C   0  0  0  0  0  0  0  0  0  0  0  0
   -3.0179  -17.5993   16.8629 N   0  0  0  0  0  0  0  0  0  0  0  0
   -2.1379  -16.9957   15.7372 C   0  0  0  0  0  0  0  0  0  0  0  0
   -2.1340  -17.2240   14.5814 O   0  0  0  0  0  0  0  0  0  0  0  0
   -1.2684  -15.9162   16.5423 N   0  0  0  0  0  0  0  0  0  0  0  0
   -0.2818  -14.8236   16.0312 C   0  0  0  0  0  0  0  0  0  0  0  0
    1.1276  -14.4052   16.7727 C   0  0  0  0  0  0  0  0  0  0  0  0
    0.8915  -13.9523   18.1150 O   0  0  0  0  0  0  0  0  0  0  0  0
    2.0439  -13.3168   16.1185 C   0  0  0  0  0  0  0  0  0  0  0  0
    1.6359  -12.1077   15.4413 C   0  0  0  0  0  0  0  0  0  0  0  0
    2.6862  -11.2697   15.1092 C   0  0  0  0  0  0  0  0  0  0  0  0
    4.1884  -11.8999   15.6129 S   0  0  0  0  0  0  0  0  0  0  0  0
    3.4307  -13.2971   16.2611 C   0  0  0  0  0  0  0  0  0  0  0  0
   -4.1788  -19.7172   15.4789 S   0  0  0  0  0  0  0  0  0  0  0  0
   -5.0242  -20.9112   16.4532 C   0  0  0  0  0  0  0  0  0  0  0  0
   -6.1660  -21.7249   13.7986 H   0  0  0  0  0  0  0  0  0  0  0  0
   -5.6141  -23.2757   13.1437 H   0  0  0  0  0  0  0  0  0  0  0  0
   -6.9097  -23.2653   14.3526 H   0  0  0  0  0  0  0  0  0  0  0  0
   -6.2818  -24.0591   17.0044 H   0  0  0  0  0  0  0  0  0  0  0  0
   -6.9418  -22.9875   19.1484 H   0  0  0  0  0  0  0  0  0  0  0  0
   -6.3210  -20.6087   19.5782 H   0  0  0  0  0  0  0  0  0  0  0  0
   -2.8247  -17.1283   17.7260 H   0  0  0  0  0  0  0  0  0  0  0  0
   -1.5582  -15.9058   17.5062 H   0  0  0  0  0  0  0  0  0  0  0  0
   -0.9041  -13.9217   15.9989 H   0  0  0  0  0  0  0  0  0  0  0  0
   -0.0524  -15.1017   14.9966 H   0  0  0  0  0  0  0  0  0  0  0  0
    1.7087  -15.3320   16.8552 H   0  0  0  0  0  0  0  0  0  0  0  0
    0.6469  -13.0128   18.0511 H   0  0  0  0  0  0  0  0  0  0  0  0
    0.6058  -11.8549   15.2186 H   0  0  0  0  0  0  0  0  0  0  0  0
    2.6367  -10.3170   14.5996 H   0  0  0  0  0  0  0  0  0  0  0  0
    4.0435  -14.0403   16.7541 H   0  0  0  0  0  0  0  0  0  0  0  0
  1  2  1  0
  2  3  1  0
  3  4  2  0
  4  5  1  0
  5  6  2  0
  6  7  1  0
  7  8  1  0
  8  9  2  0
  9 10  1  0
 10 11  1  0
 11 12  2  0
 11 13  1  0
 13 14  1  0
 14 15  1  0
 15 16  1  0
 15 17  1  0
 17 18  1  0
 18 19  2  0
 19 20  1  0
 20 21  1  0
  9 22  1  0
 22 23  1  0
 23  3  1  0
 23  7  2  0
 21 17  2  0
  1 24  1  0
  1 25  1  0
  1 26  1  0
  4 27  1  0
  5 28  1  0
  6 29  1  0
 10 30  1  0
 13 31  1  0
 14 32  1  0
 14 33  1  0
 15 34  1  0
 16 35  1  0
 18 36  1  0
 19 37  1  0
 21 38  1  0
M  END
>  <Energy>  (924) 
17.014340474931601

>  <compound_id>  (924) 
12299

>  <target_id>  (924) 
1

>  <reference_id>  (924) 
68

>  <inspiration_ids>  (924) 
[68, 20]

>  <energy_score>  (924) 
-30.59353564555846

>  <distance_score>  (924) 
16.064517318595012

>  <path>  (924) 
/opt/xchem-fragalysis-2/maxwin/BulkDock/SCRATCH/511015/C12299-P68/C12299-P68.minimised.mol

>  <scratch_subdir>  (924) 
/opt/xchem-fragalysis-2/maxwin/BulkDock/SCRATCH/511015/C12299-P68

>  <fragmenstein_runtime>  (924) 
19.38811469078064

>  <fragmenstein_outcome>  (924) 
too moved

>  <fragmenstein_mode>  (924) 
expansion

>  <fragmenstein_error>  (924) 


$$$$
C12299-P20
     RDKit          3D

 38 40  0  0  0  0  0  0  0  0999 V2000
   -1.0457  -27.9548   21.2908 C   0  0  0  0  0  0  0  0  0  0  0  0
    0.2817  -27.6339   21.7108 O   0  0  0  0  0  0  0  0  0  0  0  0
    1.0851  -27.3906   20.6181 C   0  0  0  0  0  0  0  0  0  0  0  0
    1.8144  -28.4335   20.0647 C   0  0  0  0  0  0  0  0  0  0  0  0
    2.6329  -28.1723   18.9680 C   0  0  0  0  0  0  0  0  0  0  0  0
    2.7506  -26.8673   18.4210 C   0  0  0  0  0  0  0  0  0  0  0  0
    2.0095  -25.7961   18.9679 C   0  0  0  0  0  0  0  0  0  0  0  0
    1.8793  -24.3956   18.5428 N   0  0  0  0  0  0  0  0  0  0  0  0
    1.0822  -23.4783   19.2452 C   0  0  0  0  0  0  0  0  0  0  0  0
    1.6002  -21.8190   19.9534 N   0  0  0  0  0  0  0  0  0  0  0  0
    3.0623  -20.8178   19.6515 C   0  0  0  0  0  0  0  0  0  0  0  0
    3.8476  -21.0870   18.8225 O   0  0  0  0  0  0  0  0  0  0  0  0
    3.4179  -19.4386   20.8418 N   0  0  0  0  0  0  0  0  0  0  0  0
    5.0859  -18.3128   21.0868 C   0  0  0  0  0  0  0  0  0  0  0  0
    5.9041  -16.8773   21.8608 C   0  0  0  0  0  0  0  0  0  0  0  0
    7.2184  -17.2654   22.3154 O   0  0  0  0  0  0  0  0  0  0  0  0
    6.2398  -15.6028   20.9183 C   0  0  0  0  0  0  0  0  0  0  0  0
    6.0988  -14.2149   21.3298 C   0  0  0  0  0  0  0  0  0  0  0  0
    6.5576  -13.3030   20.3978 C   0  0  0  0  0  0  0  0  0  0  0  0
    7.1825  -14.0798   19.0137 S   0  0  0  0  0  0  0  0  0  0  0  0
    6.8509  -15.6345   19.6712 C   0  0  0  0  0  0  0  0  0  0  0  0
    0.4515  -24.6971   20.3372 S   0  0  0  0  0  0  0  0  0  0  0  0
    1.2196  -26.1095   20.0334 C   0  0  0  0  0  0  0  0  0  0  0  0
   -1.5166  -27.1146   20.7708 H   0  0  0  0  0  0  0  0  0  0  0  0
   -1.6355  -28.1696   22.1868 H   0  0  0  0  0  0  0  0  0  0  0  0
   -1.0545  -28.8479   20.6565 H   0  0  0  0  0  0  0  0  0  0  0  0
    1.7507  -29.4350   20.4777 H   0  0  0  0  0  0  0  0  0  0  0  0
    3.2027  -28.9812   18.5153 H   0  0  0  0  0  0  0  0  0  0  0  0
    3.3775  -26.6850   17.5542 H   0  0  0  0  0  0  0  0  0  0  0  0
    1.0851  -21.4053   20.5625 H   0  0  0  0  0  0  0  0  0  0  0  0
    2.6646  -19.4036   21.5432 H   0  0  0  0  0  0  0  0  0  0  0  0
    5.9494  -18.8457   20.6190 H   0  0  0  0  0  0  0  0  0  0  0  0
    5.0667  -17.5876   20.2709 H   0  0  0  0  0  0  0  0  0  0  0  0
    5.3242  -16.5063   22.7111 H   0  0  0  0  0  0  0  0  0  0  0  0
    7.6304  -16.4596   22.6693 H   0  0  0  0  0  0  0  0  0  0  0  0
    5.6831  -13.9143   22.2844 H   0  0  0  0  0  0  0  0  0  0  0  0
    6.5597  -12.2241   20.4694 H   0  0  0  0  0  0  0  0  0  0  0  0
    7.1346  -16.5143   19.1095 H   0  0  0  0  0  0  0  0  0  0  0  0
  1  2  1  0
  2  3  1  0
  3  4  2  0
  4  5  1  0
  5  6  2  0
  6  7  1  0
  7  8  1  0
  8  9  2  0
  9 10  1  0
 10 11  1  0
 11 12  2  0
 11 13  1  0
 13 14  1  0
 14 15  1  0
 15 16  1  0
 15 17  1  0
 17 18  1  0
 18 19  2  0
 19 20  1  0
 20 21  1  0
  9 22  1  0
 22 23  1  0
 23  3  1  0
 23  7  2  0
 21 17  2  0
  1 24  1  0
  1 25  1  0
  1 26  1  0
  4 27  1  0
  5 28  1  0
  6 29  1  0
 10 30  1  0
 13 31  1  0
 14 32  1  0
 14 33  1  0
 15 34  1  0
 16 35  1  0
 18 36  1  0
 19 37  1  0
 21 38  1  0
M  END
>  <Energy>  (925) 
403.43749230031756

>  <compound_id>  (925) 
12299

>  <target_id>  (925) 
1

>  <reference_id>  (925) 
20

>  <inspiration_ids>  (925) 
[68, 20]

>  <energy_score>  (925) 
355.8296161798298

>  <distance_score>  (925) 
15.026790383577938

>  <path>  (925) 
/opt/xchem-fragalysis-2/maxwin/BulkDock/SCRATCH/511015/C12299-P20/C12299-P20.minimised.mol

>  <scratch_subdir>  (925) 
/opt/xchem-fragalysis-2/maxwin/BulkDock/SCRATCH/511015/C12299-P20

>  <fragmenstein_runtime>  (925) 
10.765703916549683

>  <fragmenstein_outcome>  (925) 
too moved

>  <fragmenstein_mode>  (925) 
expansion

>  <fragmenstein_error>  (925) 


$$$$
C12300-P68
     RDKit          3D

 34 36  0  0  0  0  0  0  0  0999 V2000
   -1.6893  -15.9378   23.5407 O   0  0  0  0  0  0  0  0  0  0  0  0
   -1.8808  -15.9117   22.3806 C   0  0  0  0  0  0  0  0  0  0  0  0
   -2.8740  -16.7209   21.5251 N   0  0  0  0  0  0  0  0  0  0  0  0
   -3.7540  -17.7757   21.8803 C   0  0  0  0  0  0  0  0  0  0  0  0
   -4.4369  -18.5191   21.0146 N   0  0  0  0  0  0  0  0  0  0  0  0
   -5.2260  -19.5118   21.6489 C   0  0  0  0  0  0  0  0  0  0  0  0
   -6.0528  -20.4938   21.0349 C   0  0  0  0  0  0  0  0  0  0  0  0
   -6.8510  -21.3409   21.8144 C   0  0  0  0  0  0  0  0  0  0  0  0
   -7.6274  -22.2487   21.2097 F   0  0  0  0  0  0  0  0  0  0  0  0
   -6.8727  -21.2315   23.1947 C   0  0  0  0  0  0  0  0  0  0  0  0
   -6.0436  -20.2889   23.8301 C   0  0  0  0  0  0  0  0  0  0  0  0
   -5.1989  -19.4611   23.0402 C   0  0  0  0  0  0  0  0  0  0  0  0
   -3.9987  -18.2806   23.5071 S   0  0  0  0  0  0  0  0  0  0  0  0
   -1.0930  -15.0977   21.2725 N   0  0  0  0  0  0  0  0  0  0  0  0
    0.1581  -14.2323   21.3768 C   0  0  0  0  0  0  0  0  0  0  0  0
    0.2604  -13.3673   22.6632 C   0  0  0  0  0  0  0  0  0  0  0  0
    0.4723  -14.1889   23.8143 O   0  0  0  0  0  0  0  0  0  0  0  0
    0.6412  -13.3657   20.1808 C   0  0  0  0  0  0  0  0  0  0  0  0
    2.0419  -13.3038   19.7608 C   0  0  0  0  0  0  0  0  0  0  0  0
    2.3166  -12.3102   18.8427 C   0  0  0  0  0  0  0  0  0  0  0  0
    0.9144  -11.4242   18.4518 S   0  0  0  0  0  0  0  0  0  0  0  0
   -0.0589  -12.3761   19.5104 C   0  0  0  0  0  0  0  0  0  0  0  0
   -2.8391  -16.3972   20.5776 H   0  0  0  0  0  0  0  0  0  0  0  0
   -6.0898  -20.5625   19.9533 H   0  0  0  0  0  0  0  0  0  0  0  0
   -7.5124  -21.8860   23.7793 H   0  0  0  0  0  0  0  0  0  0  0  0
   -6.0217  -20.2122   24.9141 H   0  0  0  0  0  0  0  0  0  0  0  0
   -1.4432  -15.3485   20.3642 H   0  0  0  0  0  0  0  0  0  0  0  0
    0.9285  -15.0061   21.4831 H   0  0  0  0  0  0  0  0  0  0  0  0
    1.1064  -12.6735   22.6171 H   0  0  0  0  0  0  0  0  0  0  0  0
   -0.6521  -12.7811   22.8162 H   0  0  0  0  0  0  0  0  0  0  0  0
   -0.3478  -14.7095   23.9638 H   0  0  0  0  0  0  0  0  0  0  0  0
    2.8157  -13.9486   20.1633 H   0  0  0  0  0  0  0  0  0  0  0  0
    3.2700  -12.0633   18.3953 H   0  0  0  0  0  0  0  0  0  0  0  0
   -1.1036  -12.1181   19.6222 H   0  0  0  0  0  0  0  0  0  0  0  0
  1  2  2  0
  2  3  1  0
  3  4  1  0
  4  5  2  0
  5  6  1  0
  6  7  2  0
  7  8  1  0
  8  9  1  0
  8 10  2  0
 10 11  1  0
 11 12  2  0
 12 13  1  0
  2 14  1  0
 14 15  1  0
 15 16  1  0
 16 17  1  0
 15 18  1  0
 18 19  1  0
 19 20  2  0
 20 21  1  0
 21 22  1  0
 13  4  1  0
 22 18  2  0
 12  6  1  0
  3 23  1  0
  7 24  1  0
 10 25  1  0
 11 26  1  0
 14 27  1  0
 15 28  1  0
 16 29  1  0
 16 30  1  0
 17 31  1  0
 19 32  1  0
 20 33  1  0
 22 34  1  0
M  END
>  <Energy>  (926) 
-18.67727761491691

>  <compound_id>  (926) 
12300

>  <target_id>  (926) 
1

>  <reference_id>  (926) 
68

>  <inspiration_ids>  (926) 
[68, 20]

>  <energy_score>  (926) 
-42.4755413680152

>  <distance_score>  (926) 
16.838123472637456

>  <path>  (926) 
/opt/xchem-fragalysis-2/maxwin/BulkDock/SCRATCH/511015/C12300-P68/C12300-P68.minimised.mol

>  <scratch_subdir>  (926) 
/opt/xchem-fragalysis-2/maxwin/BulkDock/SCRATCH/511015/C12300-P68

>  <fragmenstein_runtime>  (926) 
20.61457586288452

>  <fragmenstein_outcome>  (926) 
too moved

>  <fragmenstein_mode>  (926) 
expansion

>  <fragmenstein_error>  (926) 


$$$$
C12300-P20
     RDKit          3D

 34 36  0  0  0  0  0  0  0  0999 V2000
    5.9523  -10.9505   13.7466 O   0  0  0  0  0  0  0  0  0  0  0  0
    5.5324  -10.2424   14.5844 C   0  0  0  0  0  0  0  0  0  0  0  0
    4.3631  -10.5239   15.6207 N   0  0  0  0  0  0  0  0  0  0  0  0
    3.5722  -11.7558   15.8764 C   0  0  0  0  0  0  0  0  0  0  0  0
    3.5563  -12.9666   15.2987 N   0  0  0  0  0  0  0  0  0  0  0  0
    2.6102  -13.9097   15.8822 C   0  0  0  0  0  0  0  0  0  0  0  0
    2.2811  -15.2402   15.4660 C   0  0  0  0  0  0  0  0  0  0  0  0
    1.3147  -16.0101   16.1476 C   0  0  0  0  0  0  0  0  0  0  0  0
    1.0389  -17.2428   15.7093 F   0  0  0  0  0  0  0  0  0  0  0  0
    0.6627  -15.5161   17.2618 C   0  0  0  0  0  0  0  0  0  0  0  0
    0.9657  -14.2153   17.7015 C   0  0  0  0  0  0  0  0  0  0  0  0
    1.9278  -13.4207   16.9922 C   0  0  0  0  0  0  0  0  0  0  0  0
    2.4678  -11.7616   17.2487 S   0  0  0  0  0  0  0  0  0  0  0  0
    6.1434   -8.7417   15.0117 N   0  0  0  0  0  0  0  0  0  0  0  0
    7.6202   -7.8673   14.4445 C   0  0  0  0  0  0  0  0  0  0  0  0
    8.5334   -9.2909   14.7503 C   0  0  0  0  0  0  0  0  0  0  0  0
    8.4993  -10.2788   13.6885 O   0  0  0  0  0  0  0  0  0  0  0  0
    7.8828   -6.0358   15.2984 C   0  0  0  0  0  0  0  0  0  0  0  0
    8.7578   -4.2235   15.3662 C   0  0  0  0  0  0  0  0  0  0  0  0
    9.4180   -2.8704   14.8309 C   0  0  0  0  0  0  0  0  0  0  0  0
    7.8033   -2.9222   14.6330 S   0  0  0  0  0  0  0  0  0  0  0  0
    8.7989   -5.0201   14.5446 C   0  0  0  0  0  0  0  0  0  0  0  0
    4.1843   -9.6922   16.1545 H   0  0  0  0  0  0  0  0  0  0  0  0
    2.7789  -15.6574   14.5960 H   0  0  0  0  0  0  0  0  0  0  0  0
   -0.0673  -16.1303   17.7798 H   0  0  0  0  0  0  0  0  0  0  0  0
    0.4577  -13.7995   18.5679 H   0  0  0  0  0  0  0  0  0  0  0  0
    5.6420   -8.3949   15.8126 H   0  0  0  0  0  0  0  0  0  0  0  0
    7.4899   -7.8457   13.3461 H   0  0  0  0  0  0  0  0  0  0  0  0
    9.5533   -9.1078   15.0368 H   0  0  0  0  0  0  0  0  0  0  0  0
    8.1227   -9.9129   15.5569 H   0  0  0  0  0  0  0  0  0  0  0  0
    7.5737  -10.5754   13.5675 H   0  0  0  0  0  0  0  0  0  0  0  0
    9.9524   -4.2131   15.8892 H   0  0  0  0  0  0  0  0  0  0  0  0
   10.1834   -2.1903   15.1858 H   0  0  0  0  0  0  0  0  0  0  0  0
   10.0999   -4.9695   14.3352 H   0  0  0  0  0  0  0  0  0  0  0  0
  1  2  2  0
  2  3  1  0
  3  4  1  0
  4  5  2  0
  5  6  1  0
  6  7  2  0
  7  8  1  0
  8  9  1  0
  8 10  2  0
 10 11  1  0
 11 12  2  0
 12 13  1  0
  2 14  1  0
 14 15  1  0
 15 16  1  0
 16 17  1  0
 15 18  1  0
 18 19  1  0
 19 20  2  0
 20 21  1  0
 21 22  1  0
 13  4  1  0
 22 18  2  0
 12  6  1  0
  3 23  1  0
  7 24  1  0
 10 25  1  0
 11 26  1  0
 14 27  1  0
 15 28  1  0
 16 29  1  0
 16 30  1  0
 17 31  1  0
 19 32  1  0
 20 33  1  0
 22 34  1  0
M  END
>  <Energy>  (927) 
672.33671149644363

>  <compound_id>  (927) 
12300

>  <target_id>  (927) 
1

>  <reference_id>  (927) 
20

>  <inspiration_ids>  (927) 
[68, 20]

>  <energy_score>  (927) 
648.5384477433495

>  <distance_score>  (927) 
19.533490747988424

>  <path>  (927) 
/opt/xchem-fragalysis-2/maxwin/BulkDock/SCRATCH/511015/C12300-P20/C12300-P20.minimised.mol

>  <scratch_subdir>  (927) 
/opt/xchem-fragalysis-2/maxwin/BulkDock/SCRATCH/511015/C12300-P20

>  <fragmenstein_runtime>  (927) 
9.948004007339478

>  <fragmenstein_outcome>  (927) 
too moved

>  <fragmenstein_mode>  (927) 
expansion

>  <fragmenstein_error>  (927) 


$$$$
C12301-P68
     RDKit          3D

 40 42  0  0  0  0  0  0  0  0999 V2000
    0.7010  -26.8713   20.5118 C   0  0  0  0  0  0  0  0  0  0  0  0
    0.4128  -25.5001   19.9693 C   0  0  0  0  0  0  0  0  0  0  0  0
    1.2835  -24.8124   18.9407 C   0  0  0  0  0  0  0  0  0  0  0  0
    2.4904  -25.3247   18.4643 C   0  0  0  0  0  0  0  0  0  0  0  0
    3.3159  -24.6148   17.5625 C   0  0  0  0  0  0  0  0  0  0  0  0
    3.0499  -23.2575   17.2769 C   0  0  0  0  0  0  0  0  0  0  0  0
    3.8785  -22.3333   16.5688 N   0  0  0  0  0  0  0  0  0  0  0  0
    3.4020  -21.1023   16.6562 C   0  0  0  0  0  0  0  0  0  0  0  0
    3.9062  -19.8379   16.2849 N   0  0  0  0  0  0  0  0  0  0  0  0
    5.2855  -19.4291   15.7547 C   0  0  0  0  0  0  0  0  0  0  0  0
    6.2130  -20.0943   15.4630 O   0  0  0  0  0  0  0  0  0  0  0  0
    5.1744  -17.8493   15.8012 N   0  0  0  0  0  0  0  0  0  0  0  0
    6.1830  -16.7606   15.3903 C   0  0  0  0  0  0  0  0  0  0  0  0
    6.3431  -15.3802   16.2299 C   0  0  0  0  0  0  0  0  0  0  0  0
    7.0188  -15.6290   17.4719 O   0  0  0  0  0  0  0  0  0  0  0  0
    7.0710  -14.1874   15.5567 C   0  0  0  0  0  0  0  0  0  0  0  0
    6.4859  -12.8823   15.3212 C   0  0  0  0  0  0  0  0  0  0  0  0
    7.3841  -11.9443   14.8515 C   0  0  0  0  0  0  0  0  0  0  0  0
    8.9531  -12.5948   14.7022 S   0  0  0  0  0  0  0  0  0  0  0  0
    8.4227  -14.1364   15.2439 C   0  0  0  0  0  0  0  0  0  0  0  0
    1.9017  -21.0296   17.4957 S   0  0  0  0  0  0  0  0  0  0  0  0
    1.8910  -22.7196   17.8208 C   0  0  0  0  0  0  0  0  0  0  0  0
    0.9700  -23.4877   18.5767 C   0  0  0  0  0  0  0  0  0  0  0  0
    0.6243  -27.6424   19.7462 H   0  0  0  0  0  0  0  0  0  0  0  0
    1.7137  -26.8709   20.9273 H   0  0  0  0  0  0  0  0  0  0  0  0
    0.0032  -27.1192   21.3184 H   0  0  0  0  0  0  0  0  0  0  0  0
    0.5012  -24.8449   20.8335 H   0  0  0  0  0  0  0  0  0  0  0  0
   -0.6049  -25.5291   19.5888 H   0  0  0  0  0  0  0  0  0  0  0  0
    2.8997  -26.2511   18.8572 H   0  0  0  0  0  0  0  0  0  0  0  0
    4.2427  -25.0541   17.2118 H   0  0  0  0  0  0  0  0  0  0  0  0
    3.3792  -19.0180   16.5088 H   0  0  0  0  0  0  0  0  0  0  0  0
    4.2253  -17.5878   16.0085 H   0  0  0  0  0  0  0  0  0  0  0  0
    7.1545  -17.2656   15.3538 H   0  0  0  0  0  0  0  0  0  0  0  0
    5.8978  -16.5026   14.3644 H   0  0  0  0  0  0  0  0  0  0  0  0
    5.3274  -15.0546   16.4869 H   0  0  0  0  0  0  0  0  0  0  0  0
    7.1962  -14.7614   17.8751 H   0  0  0  0  0  0  0  0  0  0  0  0
    5.4450  -12.6437   15.5062 H   0  0  0  0  0  0  0  0  0  0  0  0
    7.1957  -10.9104   14.5935 H   0  0  0  0  0  0  0  0  0  0  0  0
    9.1467  -14.9349   15.3428 H   0  0  0  0  0  0  0  0  0  0  0  0
    0.1216  -22.9803   19.0086 H   0  0  0  0  0  0  0  0  0  0  0  0
  1  2  1  0
  2  3  1  0
  3  4  2  0
  4  5  1  0
  5  6  2  0
  6  7  1  0
  7  8  2  0
  8  9  1  0
  9 10  1  0
 10 11  2  0
 10 12  1  0
 12 13  1  0
 13 14  1  0
 14 15  1  0
 14 16  1  0
 16 17  1  0
 17 18  2  0
 18 19  1  0
 19 20  1  0
  8 21  1  0
 21 22  1  0
 22 23  2  0
 23  3  1  0
 22  6  1  0
 20 16  2  0
  1 24  1  0
  1 25  1  0
  1 26  1  0
  2 27  1  0
  2 28  1  0
  4 29  1  0
  5 30  1  0
  9 31  1  0
 12 32  1  0
 13 33  1  0
 13 34  1  0
 14 35  1  0
 15 36  1  0
 17 37  1  0
 18 38  1  0
 20 39  1  0
 23 40  1  0
M  END
>  <Energy>  (928) 
9.5871255569937404

>  <compound_id>  (928) 
12301

>  <target_id>  (928) 
1

>  <reference_id>  (928) 
68

>  <inspiration_ids>  (928) 
[68, 20]

>  <energy_score>  (928) 
-48.93897513154684

>  <distance_score>  (928) 
15.780801211460126

>  <path>  (928) 
/opt/xchem-fragalysis-2/maxwin/BulkDock/SCRATCH/511015/C12301-P68/C12301-P68.minimised.mol

>  <scratch_subdir>  (928) 
/opt/xchem-fragalysis-2/maxwin/BulkDock/SCRATCH/511015/C12301-P68

>  <fragmenstein_runtime>  (928) 
24.75378394126892

>  <fragmenstein_outcome>  (928) 
too moved

>  <fragmenstein_mode>  (928) 
expansion

>  <fragmenstein_error>  (928) 


$$$$
C12301-P20
     RDKit          3D

 40 42  0  0  0  0  0  0  0  0999 V2000
   -8.8186  -23.0255   21.0216 C   0  0  0  0  0  0  0  0  0  0  0  0
   -7.3448  -23.1076   20.6325 C   0  0  0  0  0  0  0  0  0  0  0  0
   -6.5487  -21.8387   20.9100 C   0  0  0  0  0  0  0  0  0  0  0  0
   -6.5011  -21.2823   22.1890 C   0  0  0  0  0  0  0  0  0  0  0  0
   -5.6750  -20.1617   22.4721 C   0  0  0  0  0  0  0  0  0  0  0  0
   -4.8603  -19.5537   21.4751 C   0  0  0  0  0  0  0  0  0  0  0  0
   -3.9491  -18.4519   21.6124 N   0  0  0  0  0  0  0  0  0  0  0  0
   -3.3626  -18.1276   20.4673 C   0  0  0  0  0  0  0  0  0  0  0  0
   -2.3720  -17.1678   20.0978 N   0  0  0  0  0  0  0  0  0  0  0  0
   -1.8431  -15.9246   20.8513 C   0  0  0  0  0  0  0  0  0  0  0  0
   -2.1609  -15.4816   21.8965 O   0  0  0  0  0  0  0  0  0  0  0  0
   -0.8082  -15.3139   19.7859 N   0  0  0  0  0  0  0  0  0  0  0  0
   -0.0360  -13.9533   19.7799 C   0  0  0  0  0  0  0  0  0  0  0  0
    1.5478  -13.7493   19.3650 C   0  0  0  0  0  0  0  0  0  0  0  0
    2.3946  -14.0130   20.4969 O   0  0  0  0  0  0  0  0  0  0  0  0
    2.0450  -12.3826   18.7944 C   0  0  0  0  0  0  0  0  0  0  0  0
    3.3092  -12.2416   18.0797 C   0  0  0  0  0  0  0  0  0  0  0  0
    3.6330  -10.9409   17.7517 C   0  0  0  0  0  0  0  0  0  0  0  0
    2.4440   -9.8496   18.2995 S   0  0  0  0  0  0  0  0  0  0  0  0
    1.4984  -11.1230   18.9751 C   0  0  0  0  0  0  0  0  0  0  0  0
   -4.0146  -19.0573   19.1516 S   0  0  0  0  0  0  0  0  0  0  0  0
   -4.9713  -20.0743   20.1894 C   0  0  0  0  0  0  0  0  0  0  0  0
   -5.7881  -21.2148   19.8918 C   0  0  0  0  0  0  0  0  0  0  0  0
   -8.9430  -23.0148   22.1089 H   0  0  0  0  0  0  0  0  0  0  0  0
   -9.2733  -22.1107   20.6255 H   0  0  0  0  0  0  0  0  0  0  0  0
   -9.3837  -23.8687   20.6180 H   0  0  0  0  0  0  0  0  0  0  0  0
   -6.8507  -23.9266   21.1658 H   0  0  0  0  0  0  0  0  0  0  0  0
   -7.2835  -23.3416   19.5627 H   0  0  0  0  0  0  0  0  0  0  0  0
   -7.0720  -21.7204   23.0053 H   0  0  0  0  0  0  0  0  0  0  0  0
   -5.6320  -19.7589   23.4811 H   0  0  0  0  0  0  0  0  0  0  0  0
   -1.9437  -17.2171   19.1933 H   0  0  0  0  0  0  0  0  0  0  0  0
   -0.6865  -15.9663   19.0269 H   0  0  0  0  0  0  0  0  0  0  0  0
   -0.6253  -13.3476   19.0824 H   0  0  0  0  0  0  0  0  0  0  0  0
   -0.1798  -13.5453   20.7865 H   0  0  0  0  0  0  0  0  0  0  0  0
    1.7630  -14.5076   18.6040 H   0  0  0  0  0  0  0  0  0  0  0  0
    2.5055  -13.1693   20.9704 H   0  0  0  0  0  0  0  0  0  0  0  0
    3.9531  -13.0818   17.8427 H   0  0  0  0  0  0  0  0  0  0  0  0
    4.5100  -10.5882   17.2263 H   0  0  0  0  0  0  0  0  0  0  0  0
    0.5832  -10.8657   19.4916 H   0  0  0  0  0  0  0  0  0  0  0  0
   -5.8211  -21.5894   18.8717 H   0  0  0  0  0  0  0  0  0  0  0  0
  1  2  1  0
  2  3  1  0
  3  4  2  0
  4  5  1  0
  5  6  2  0
  6  7  1  0
  7  8  2  0
  8  9  1  0
  9 10  1  0
 10 11  2  0
 10 12  1  0
 12 13  1  0
 13 14  1  0
 14 15  1  0
 14 16  1  0
 16 17  1  0
 17 18  2  0
 18 19  1  0
 19 20  1  0
  8 21  1  0
 21 22  1  0
 22 23  2  0
 23  3  1  0
 22  6  1  0
 20 16  2  0
  1 24  1  0
  1 25  1  0
  1 26  1  0
  2 27  1  0
  2 28  1  0
  4 29  1  0
  5 30  1  0
  9 31  1  0
 12 32  1  0
 13 33  1  0
 13 34  1  0
 14 35  1  0
 15 36  1  0
 17 37  1  0
 18 38  1  0
 20 39  1  0
 23 40  1  0
M  END
>  <Energy>  (929) 
18.49623817832083

>  <compound_id>  (929) 
12301

>  <target_id>  (929) 
1

>  <reference_id>  (929) 
20

>  <inspiration_ids>  (929) 
[68, 20]

>  <energy_score>  (929) 
-40.02986251022338

>  <distance_score>  (929) 
15.252819952694187

>  <path>  (929) 
/opt/xchem-fragalysis-2/maxwin/BulkDock/SCRATCH/511015/C12301-P20/C12301-P20.minimised.mol

>  <scratch_subdir>  (929) 
/opt/xchem-fragalysis-2/maxwin/BulkDock/SCRATCH/511015/C12301-P20

>  <fragmenstein_runtime>  (929) 
11.05760145187378

>  <fragmenstein_outcome>  (929) 
too moved

>  <fragmenstein_mode>  (929) 
expansion

>  <fragmenstein_error>  (929) 


$$$$
C12302-P68
     RDKit          3D

 49 52  0  0  0  0  0  0  0  0999 V2000
    6.5332  -11.0374   15.2826 C   0  0  0  0  0  0  0  0  0  0  0  0
    8.0270  -11.2895   15.1638 C   0  0  0  0  0  0  0  0  0  0  0  0
    8.3842  -12.9984   15.5767 C   0  0  0  0  0  0  0  0  0  0  0  0
    9.5132  -13.2844   15.2176 O   0  0  0  0  0  0  0  0  0  0  0  0
    7.3567  -13.8314   16.3852 N   0  0  0  0  0  0  0  0  0  0  0  0
    7.4930  -15.1328   17.0286 C   0  0  0  0  0  0  0  0  0  0  0  0
    6.3388  -14.7663   15.3246 C   0  0  0  0  0  0  0  0  0  0  0  0
    5.5195  -16.3501   15.6835 C   0  0  0  0  0  0  0  0  0  0  0  0
    5.9688  -17.5723   15.3454 N   0  0  0  0  0  0  0  0  0  0  0  0
    5.0328  -18.6453   15.5944 C   0  0  0  0  0  0  0  0  0  0  0  0
    5.1995  -20.0475   15.3403 C   0  0  0  0  0  0  0  0  0  0  0  0
    4.2382  -21.0149   15.7164 C   0  0  0  0  0  0  0  0  0  0  0  0
    3.0992  -20.6180   16.3817 C   0  0  0  0  0  0  0  0  0  0  0  0
    2.9137  -19.2544   16.6417 C   0  0  0  0  0  0  0  0  0  0  0  0
    3.8489  -18.2579   16.2128 C   0  0  0  0  0  0  0  0  0  0  0  0
    3.8852  -16.4906   16.3637 S   0  0  0  0  0  0  0  0  0  0  0  0
    8.7867  -10.0489   16.0666 N   0  0  0  0  0  0  0  0  0  0  0  0
    9.2861  -10.7684   17.2398 C   0  0  0  0  0  0  0  0  0  0  0  0
   10.7763  -10.8998   17.0647 C   0  0  0  0  0  0  0  0  0  0  0  0
   11.2362   -9.9291   15.9666 C   0  0  0  0  0  0  0  0  0  0  0  0
   10.1132   -8.9623   15.4934 C   0  0  0  0  0  0  0  0  0  0  0  0
   10.1565   -6.8865   15.4650 C   0  0  0  0  0  0  0  0  0  0  0  0
   11.8697   -6.3789   16.1178 C   0  0  0  0  0  0  0  0  0  0  0  0
   12.5591   -5.1864   16.4175 C   0  0  0  0  0  0  0  0  0  0  0  0
   11.6065   -3.9706   15.8734 S   0  0  0  0  0  0  0  0  0  0  0  0
   10.9884   -5.4320   14.8876 C   0  0  0  0  0  0  0  0  0  0  0  0
    6.2723  -10.0232   14.9653 H   0  0  0  0  0  0  0  0  0  0  0  0
    6.1917  -11.1698   16.3144 H   0  0  0  0  0  0  0  0  0  0  0  0
    5.9751  -11.7361   14.6524 H   0  0  0  0  0  0  0  0  0  0  0  0
    8.3684  -11.1521   14.1323 H   0  0  0  0  0  0  0  0  0  0  0  0
    6.6101  -15.4140   17.6103 H   0  0  0  0  0  0  0  0  0  0  0  0
    8.2576  -14.9577   17.7995 H   0  0  0  0  0  0  0  0  0  0  0  0
    7.9664  -15.9039   16.4068 H   0  0  0  0  0  0  0  0  0  0  0  0
    6.9461  -14.9700   14.4316 H   0  0  0  0  0  0  0  0  0  0  0  0
    5.5226  -14.0830   15.0632 H   0  0  0  0  0  0  0  0  0  0  0  0
    6.1090  -20.3662   14.8379 H   0  0  0  0  0  0  0  0  0  0  0  0
    4.4081  -22.0652   15.4979 H   0  0  0  0  0  0  0  0  0  0  0  0
    2.3610  -21.3414   16.7166 H   0  0  0  0  0  0  0  0  0  0  0  0
    2.0683  -18.9921   17.2509 H   0  0  0  0  0  0  0  0  0  0  0  0
    8.9907  -10.2464   18.1551 H   0  0  0  0  0  0  0  0  0  0  0  0
    8.8314  -11.7394   17.4380 H   0  0  0  0  0  0  0  0  0  0  0  0
   11.2397  -10.7478   18.0378 H   0  0  0  0  0  0  0  0  0  0  0  0
   11.0468  -11.9214   16.7735 H   0  0  0  0  0  0  0  0  0  0  0  0
   11.4575  -10.6204   15.1329 H   0  0  0  0  0  0  0  0  0  0  0  0
   12.1721   -9.4370   16.0770 H   0  0  0  0  0  0  0  0  0  0  0  0
   10.0885   -9.3625   14.4919 H   0  0  0  0  0  0  0  0  0  0  0  0
   12.4284   -7.2810   16.2609 H   0  0  0  0  0  0  0  0  0  0  0  0
   13.4996   -5.0247   16.9195 H   0  0  0  0  0  0  0  0  0  0  0  0
   10.5743   -4.6833   14.2272 H   0  0  0  0  0  0  0  0  0  0  0  0
  1  2  1  0
  2  3  1  0
  3  4  2  0
  3  5  1  0
  5  6  1  0
  5  7  1  0
  7  8  1  0
  8  9  2  0
  9 10  1  0
 10 11  2  0
 11 12  1  0
 12 13  2  0
 13 14  1  0
 14 15  2  0
 15 16  1  0
  2 17  1  0
 17 18  1  0
 18 19  1  0
 19 20  1  0
 20 21  1  0
 21 22  1  0
 22 23  1  0
 23 24  2  0
 24 25  1  0
 25 26  1  0
 16  8  1  0
 21 17  1  0
 26 22  2  0
 15 10  1  0
  1 27  1  0
  1 28  1  0
  1 29  1  0
  2 30  1  0
  6 31  1  0
  6 32  1  0
  6 33  1  0
  7 34  1  0
  7 35  1  0
 11 36  1  0
 12 37  1  0
 13 38  1  0
 14 39  1  0
 18 40  1  0
 18 41  1  0
 19 42  1  0
 19 43  1  0
 20 44  1  0
 20 45  1  0
 21 46  1  0
 23 47  1  0
 24 48  1  0
 26 49  1  0
M  END
>  <Energy>  (930) 
641.03343101424093

>  <compound_id>  (930) 
12302

>  <target_id>  (930) 
1

>  <reference_id>  (930) 
68

>  <inspiration_ids>  (930) 
[68, 20]

>  <energy_score>  (930) 
506.5481523841843

>  <distance_score>  (930) 
17.505811896398416

>  <path>  (930) 
/opt/xchem-fragalysis-2/maxwin/BulkDock/SCRATCH/511015/C12302-P68/C12302-P68.minimised.mol

>  <scratch_subdir>  (930) 
/opt/xchem-fragalysis-2/maxwin/BulkDock/SCRATCH/511015/C12302-P68

>  <fragmenstein_runtime>  (930) 
36.17374038696289

>  <fragmenstein_outcome>  (930) 
too moved

>  <fragmenstein_mode>  (930) 
expansion

>  <fragmenstein_error>  (930) 


$$$$
C12302-P20
     RDKit          3D

 49 52  0  0  0  0  0  0  0  0999 V2000
    7.5206  -17.2868   17.5842 C   0  0  0  0  0  0  0  0  0  0  0  0
    6.1310  -16.5098   17.8697 C   0  0  0  0  0  0  0  0  0  0  0  0
    5.3150  -17.8879   18.9442 C   0  0  0  0  0  0  0  0  0  0  0  0
    5.8388  -17.9154   20.1282 O   0  0  0  0  0  0  0  0  0  0  0  0
    3.7465  -19.3126   17.9470 N   0  0  0  0  0  0  0  0  0  0  0  0
    2.9977  -20.4634   18.6221 C   0  0  0  0  0  0  0  0  0  0  0  0
    4.3279  -20.8221   16.9626 C   0  0  0  0  0  0  0  0  0  0  0  0
    3.6841  -22.3318   16.6130 C   0  0  0  0  0  0  0  0  0  0  0  0
    4.1518  -23.4521   17.1651 N   0  0  0  0  0  0  0  0  0  0  0  0
    3.5125  -24.6122   16.7206 C   0  0  0  0  0  0  0  0  0  0  0  0
    3.4968  -25.8931   17.3359 C   0  0  0  0  0  0  0  0  0  0  0  0
    2.9727  -26.9996   16.6544 C   0  0  0  0  0  0  0  0  0  0  0  0
    2.5376  -26.8535   15.3403 C   0  0  0  0  0  0  0  0  0  0  0  0
    2.5308  -25.5854   14.7162 C   0  0  0  0  0  0  0  0  0  0  0  0
    2.9324  -24.4538   15.4716 C   0  0  0  0  0  0  0  0  0  0  0  0
    2.7763  -22.7265   15.1743 S   0  0  0  0  0  0  0  0  0  0  0  0
    6.7623  -15.1117   18.2534 N   0  0  0  0  0  0  0  0  0  0  0  0
    7.3253  -14.5778   16.9383 C   0  0  0  0  0  0  0  0  0  0  0  0
    6.2218  -13.7639   16.2681 C   0  0  0  0  0  0  0  0  0  0  0  0
    5.1751  -13.5917   17.3508 C   0  0  0  0  0  0  0  0  0  0  0  0
    5.9285  -13.9274   18.6411 C   0  0  0  0  0  0  0  0  0  0  0  0
    6.7898  -12.6677   19.0633 C   0  0  0  0  0  0  0  0  0  0  0  0
    8.1998  -12.6187   19.3783 C   0  0  0  0  0  0  0  0  0  0  0  0
    8.6762  -11.3431   19.6059 C   0  0  0  0  0  0  0  0  0  0  0  0
    7.4317  -10.1826   19.5396 S   0  0  0  0  0  0  0  0  0  0  0  0
    6.2711  -11.3797   19.1673 C   0  0  0  0  0  0  0  0  0  0  0  0
    7.6233  -18.2194   18.1456 H   0  0  0  0  0  0  0  0  0  0  0  0
    8.4149  -16.7171   17.8679 H   0  0  0  0  0  0  0  0  0  0  0  0
    7.6050  -17.5239   16.5171 H   0  0  0  0  0  0  0  0  0  0  0  0
    5.6331  -16.3600   16.9037 H   0  0  0  0  0  0  0  0  0  0  0  0
    2.4282  -20.1138   19.4796 H   0  0  0  0  0  0  0  0  0  0  0  0
    2.2791  -20.8270   17.8936 H   0  0  0  0  0  0  0  0  0  0  0  0
    3.7822  -21.0674   19.0514 H   0  0  0  0  0  0  0  0  0  0  0  0
    5.4066  -21.0273   17.0270 H   0  0  0  0  0  0  0  0  0  0  0  0
    4.2276  -20.3497   15.9668 H   0  0  0  0  0  0  0  0  0  0  0  0
    3.9132  -26.0067   18.3307 H   0  0  0  0  0  0  0  0  0  0  0  0
    2.9401  -27.9716   17.1376 H   0  0  0  0  0  0  0  0  0  0  0  0
    2.1526  -27.7157   14.8010 H   0  0  0  0  0  0  0  0  0  0  0  0
    2.1114  -25.4632   13.7224 H   0  0  0  0  0  0  0  0  0  0  0  0
    8.1985  -13.9477   17.1352 H   0  0  0  0  0  0  0  0  0  0  0  0
    7.6966  -15.3311   16.2375 H   0  0  0  0  0  0  0  0  0  0  0  0
    5.7969  -14.2847   15.4037 H   0  0  0  0  0  0  0  0  0  0  0  0
    6.6087  -12.7968   15.9292 H   0  0  0  0  0  0  0  0  0  0  0  0
    4.3607  -14.3108   17.1959 H   0  0  0  0  0  0  0  0  0  0  0  0
    4.7237  -12.5962   17.3199 H   0  0  0  0  0  0  0  0  0  0  0  0
    5.2485  -14.1318   19.4651 H   0  0  0  0  0  0  0  0  0  0  0  0
    8.8360  -13.4962   19.4071 H   0  0  0  0  0  0  0  0  0  0  0  0
    9.6910  -11.0506   19.8358 H   0  0  0  0  0  0  0  0  0  0  0  0
    5.2435  -11.0756   19.0257 H   0  0  0  0  0  0  0  0  0  0  0  0
  1  2  1  0
  2  3  1  0
  3  4  2  0
  3  5  1  0
  5  6  1  0
  5  7  1  0
  7  8  1  0
  8  9  2  0
  9 10  1  0
 10 11  2  0
 11 12  1  0
 12 13  2  0
 13 14  1  0
 14 15  2  0
 15 16  1  0
  2 17  1  0
 17 18  1  0
 18 19  1  0
 19 20  1  0
 20 21  1  0
 21 22  1  0
 22 23  1  0
 23 24  2  0
 24 25  1  0
 25 26  1  0
 16  8  1  0
 21 17  1  0
 26 22  2  0
 15 10  1  0
  1 27  1  0
  1 28  1  0
  1 29  1  0
  2 30  1  0
  6 31  1  0
  6 32  1  0
  6 33  1  0
  7 34  1  0
  7 35  1  0
 11 36  1  0
 12 37  1  0
 13 38  1  0
 14 39  1  0
 18 40  1  0
 18 41  1  0
 19 42  1  0
 19 43  1  0
 20 44  1  0
 20 45  1  0
 21 46  1  0
 23 47  1  0
 24 48  1  0
 26 49  1  0
M  END
>  <Energy>  (931) 
833.92370681514114

>  <compound_id>  (931) 
12302

>  <target_id>  (931) 
1

>  <reference_id>  (931) 
20

>  <inspiration_ids>  (931) 
[68, 20]

>  <energy_score>  (931) 
699.43842818509

>  <distance_score>  (931) 
15.794360209522456

>  <path>  (931) 
/opt/xchem-fragalysis-2/maxwin/BulkDock/SCRATCH/511015/C12302-P20/C12302-P20.minimised.mol

>  <scratch_subdir>  (931) 
/opt/xchem-fragalysis-2/maxwin/BulkDock/SCRATCH/511015/C12302-P20

>  <fragmenstein_runtime>  (931) 
12.24287748336792

>  <fragmenstein_outcome>  (931) 
too moved

>  <fragmenstein_mode>  (931) 
expansion

>  <fragmenstein_error>  (931) 


$$$$
C12303-P68
     RDKit          3D

 41 43  0  0  0  0  0  0  0  0999 V2000
    1.6994  -23.7741   18.2892 C   0  0  0  0  0  0  0  0  0  0  0  0
    0.8109  -23.9740   19.5318 C   0  0  0  0  0  0  0  0  0  0  0  0
    0.8949  -22.8413   20.5721 N   0  0  0  0  0  0  0  0  0  0  0  0
    1.4735  -21.4456   20.4733 C   0  0  0  0  0  0  0  0  0  0  0  0
    1.9320  -20.8628   19.5297 O   0  0  0  0  0  0  0  0  0  0  0  0
    1.6540  -20.4469   22.1015 C   0  0  0  0  0  0  0  0  0  0  0  0
    3.0079  -19.6566   23.4346 C   0  0  0  0  0  0  0  0  0  0  0  0
    2.6558  -18.2755   24.6753 N   0  0  0  0  0  0  0  0  0  0  0  0
    3.0848  -16.8054   24.6814 C   0  0  0  0  0  0  0  0  0  0  0  0
    3.8176  -16.2063   23.9345 O   0  0  0  0  0  0  0  0  0  0  0  0
    2.5363  -15.8817   25.6860 C   0  0  0  0  0  0  0  0  0  0  0  0
    1.7335  -14.7389   25.2454 C   0  0  0  0  0  0  0  0  0  0  0  0
    2.0384  -13.5590   25.8915 C   0  0  0  0  0  0  0  0  0  0  0  0
    3.2347  -13.7896   27.0814 S   0  0  0  0  0  0  0  0  0  0  0  0
    3.3350  -15.4777   26.7494 C   0  0  0  0  0  0  0  0  0  0  0  0
    0.7267  -25.5467   20.1913 C   0  0  0  0  0  0  0  0  0  0  0  0
   -0.1117  -26.1035   21.0900 N   0  0  0  0  0  0  0  0  0  0  0  0
   -0.1704  -27.5224   20.9884 C   0  0  0  0  0  0  0  0  0  0  0  0
   -0.7516  -28.5560   21.7959 C   0  0  0  0  0  0  0  0  0  0  0  0
   -0.9315  -29.9004   21.3521 C   0  0  0  0  0  0  0  0  0  0  0  0
   -0.4384  -30.2754   20.0938 C   0  0  0  0  0  0  0  0  0  0  0  0
    0.3194  -29.3360   19.3338 C   0  0  0  0  0  0  0  0  0  0  0  0
    0.4853  -27.9919   19.8567 C   0  0  0  0  0  0  0  0  0  0  0  0
    1.8272  -26.8062   19.7366 S   0  0  0  0  0  0  0  0  0  0  0  0
    1.1693  -23.1264   17.5775 H   0  0  0  0  0  0  0  0  0  0  0  0
    2.6354  -23.2423   18.4533 H   0  0  0  0  0  0  0  0  0  0  0  0
    1.9187  -24.7058   17.7695 H   0  0  0  0  0  0  0  0  0  0  0  0
   -0.1496  -23.8861   19.0263 H   0  0  0  0  0  0  0  0  0  0  0  0
    0.5214  -22.9817   21.4955 H   0  0  0  0  0  0  0  0  0  0  0  0
    1.1231  -19.6122   21.6201 H   0  0  0  0  0  0  0  0  0  0  0  0
    0.8072  -20.8499   22.6873 H   0  0  0  0  0  0  0  0  0  0  0  0
    3.3554  -20.2563   24.2828 H   0  0  0  0  0  0  0  0  0  0  0  0
    3.9271  -19.5409   22.9469 H   0  0  0  0  0  0  0  0  0  0  0  0
    1.9663  -18.4246   25.3973 H   0  0  0  0  0  0  0  0  0  0  0  0
    1.1033  -14.7512   24.3652 H   0  0  0  0  0  0  0  0  0  0  0  0
    1.6392  -12.5726   25.6970 H   0  0  0  0  0  0  0  0  0  0  0  0
    4.1273  -16.0391   27.2261 H   0  0  0  0  0  0  0  0  0  0  0  0
   -1.0529  -28.3191   22.7885 H   0  0  0  0  0  0  0  0  0  0  0  0
   -1.4251  -30.6295   21.9831 H   0  0  0  0  0  0  0  0  0  0  0  0
   -0.5402  -31.2994   19.7491 H   0  0  0  0  0  0  0  0  0  0  0  0
    0.8934  -29.6762   18.4800 H   0  0  0  0  0  0  0  0  0  0  0  0
  1  2  1  0
  2  3  1  0
  3  4  1  0
  4  5  2  0
  4  6  1  0
  6  7  1  0
  7  8  1  0
  8  9  1  0
  9 10  2  0
  9 11  1  0
 11 12  1  0
 12 13  2  0
 13 14  1  0
 14 15  1  0
  2 16  1  0
 16 17  2  0
 17 18  1  0
 18 19  2  0
 19 20  1  0
 20 21  2  0
 21 22  1  0
 22 23  2  0
 23 24  1  0
 15 11  2  0
 24 16  1  0
 23 18  1  0
  1 25  1  0
  1 26  1  0
  1 27  1  0
  2 28  1  0
  3 29  1  0
  6 30  1  0
  6 31  1  0
  7 32  1  0
  7 33  1  0
  8 34  1  0
 12 35  1  0
 13 36  1  0
 15 37  1  0
 19 38  1  0
 20 39  1  0
 21 40  1  0
 22 41  1  0
M  END
>  <Energy>  (932) 
289.4783241252627

>  <compound_id>  (932) 
12303

>  <target_id>  (932) 
1

>  <reference_id>  (932) 
68

>  <inspiration_ids>  (932) 
[68, 20]

>  <energy_score>  (932) 
229.42344107697824

>  <distance_score>  (932) 
15.822301092592124

>  <path>  (932) 
/opt/xchem-fragalysis-2/maxwin/BulkDock/SCRATCH/511015/C12303-P68/C12303-P68.minimised.mol

>  <scratch_subdir>  (932) 
/opt/xchem-fragalysis-2/maxwin/BulkDock/SCRATCH/511015/C12303-P68

>  <fragmenstein_runtime>  (932) 
30.473722219467163

>  <fragmenstein_outcome>  (932) 
too moved

>  <fragmenstein_mode>  (932) 
expansion

>  <fragmenstein_error>  (932) 


$$$$
C12303-P20
     RDKit          3D

 41 43  0  0  0  0  0  0  0  0999 V2000
    2.2393  -30.8935   19.2791 C   0  0  0  0  0  0  0  0  0  0  0  0
    1.5137  -29.7381   19.9790 C   0  0  0  0  0  0  0  0  0  0  0  0
    1.8780  -28.4034   19.4011 N   0  0  0  0  0  0  0  0  0  0  0  0
    2.8870  -28.0319   18.4012 C   0  0  0  0  0  0  0  0  0  0  0  0
    3.6190  -28.7164   17.7366 O   0  0  0  0  0  0  0  0  0  0  0  0
    3.1034  -26.4631   18.2681 C   0  0  0  0  0  0  0  0  0  0  0  0
    3.7914  -26.0492   16.9137 C   0  0  0  0  0  0  0  0  0  0  0  0
    4.4592  -24.7221   16.7600 N   0  0  0  0  0  0  0  0  0  0  0  0
    4.1433  -23.5880   15.9001 C   0  0  0  0  0  0  0  0  0  0  0  0
    3.2223  -23.4064   15.1598 O   0  0  0  0  0  0  0  0  0  0  0  0
    5.1952  -22.4625   15.8432 C   0  0  0  0  0  0  0  0  0  0  0  0
    4.9734  -21.2062   15.1051 C   0  0  0  0  0  0  0  0  0  0  0  0
    6.0756  -20.3820   14.9993 C   0  0  0  0  0  0  0  0  0  0  0  0
    7.3848  -20.9992   15.8959 S   0  0  0  0  0  0  0  0  0  0  0  0
    6.4917  -22.4187   16.3403 C   0  0  0  0  0  0  0  0  0  0  0  0
    0.0125  -30.1149   20.2373 C   0  0  0  0  0  0  0  0  0  0  0  0
   -0.5116  -30.2795   21.4495 N   0  0  0  0  0  0  0  0  0  0  0  0
   -1.7650  -30.9106   21.3927 C   0  0  0  0  0  0  0  0  0  0  0  0
   -2.5906  -31.2619   22.4914 C   0  0  0  0  0  0  0  0  0  0  0  0
   -3.8302  -31.8855   22.2827 C   0  0  0  0  0  0  0  0  0  0  0  0
   -4.2587  -32.1745   20.9933 C   0  0  0  0  0  0  0  0  0  0  0  0
   -3.4564  -31.8527   19.8907 C   0  0  0  0  0  0  0  0  0  0  0  0
   -2.2127  -31.2179   20.1099 C   0  0  0  0  0  0  0  0  0  0  0  0
   -1.0258  -30.6769   18.9665 S   0  0  0  0  0  0  0  0  0  0  0  0
    1.9972  -31.8560   19.7440 H   0  0  0  0  0  0  0  0  0  0  0  0
    3.3254  -30.7670   19.3417 H   0  0  0  0  0  0  0  0  0  0  0  0
    1.9713  -30.9528   18.2186 H   0  0  0  0  0  0  0  0  0  0  0  0
    1.9459  -29.6794   20.9884 H   0  0  0  0  0  0  0  0  0  0  0  0
    1.5065  -27.5627   19.8245 H   0  0  0  0  0  0  0  0  0  0  0  0
    3.7630  -26.1778   19.0962 H   0  0  0  0  0  0  0  0  0  0  0  0
    2.1622  -25.9325   18.4073 H   0  0  0  0  0  0  0  0  0  0  0  0
    4.5860  -26.7659   16.6802 H   0  0  0  0  0  0  0  0  0  0  0  0
    3.0507  -26.1291   16.1111 H   0  0  0  0  0  0  0  0  0  0  0  0
    5.2712  -24.5021   17.3088 H   0  0  0  0  0  0  0  0  0  0  0  0
    4.0278  -20.9866   14.6154 H   0  0  0  0  0  0  0  0  0  0  0  0
    6.1522  -19.4556   14.4453 H   0  0  0  0  0  0  0  0  0  0  0  0
    7.0152  -23.1765   16.9045 H   0  0  0  0  0  0  0  0  0  0  0  0
   -2.2529  -31.0367   23.4975 H   0  0  0  0  0  0  0  0  0  0  0  0
   -4.4600  -32.1392   23.1314 H   0  0  0  0  0  0  0  0  0  0  0  0
   -5.2271  -32.6449   20.8341 H   0  0  0  0  0  0  0  0  0  0  0  0
   -3.7991  -32.0563   18.8804 H   0  0  0  0  0  0  0  0  0  0  0  0
  1  2  1  0
  2  3  1  0
  3  4  1  0
  4  5  2  0
  4  6  1  0
  6  7  1  0
  7  8  1  0
  8  9  1  0
  9 10  2  0
  9 11  1  0
 11 12  1  0
 12 13  2  0
 13 14  1  0
 14 15  1  0
  2 16  1  0
 16 17  2  0
 17 18  1  0
 18 19  2  0
 19 20  1  0
 20 21  2  0
 21 22  1  0
 22 23  2  0
 23 24  1  0
 15 11  2  0
 24 16  1  0
 23 18  1  0
  1 25  1  0
  1 26  1  0
  1 27  1  0
  2 28  1  0
  3 29  1  0
  6 30  1  0
  6 31  1  0
  7 32  1  0
  7 33  1  0
  8 34  1  0
 12 35  1  0
 13 36  1  0
 15 37  1  0
 19 38  1  0
 20 39  1  0
 21 40  1  0
 22 41  1  0
M  END
>  <Energy>  (933) 
32.365294913107462

>  <compound_id>  (933) 
12303

>  <target_id>  (933) 
1

>  <reference_id>  (933) 
20

>  <inspiration_ids>  (933) 
[68, 20]

>  <energy_score>  (933) 
-27.68958813517827

>  <distance_score>  (933) 
15.605911018059787

>  <path>  (933) 
/opt/xchem-fragalysis-2/maxwin/BulkDock/SCRATCH/511015/C12303-P20/C12303-P20.minimised.mol

>  <scratch_subdir>  (933) 
/opt/xchem-fragalysis-2/maxwin/BulkDock/SCRATCH/511015/C12303-P20

>  <fragmenstein_runtime>  (933) 
16.171391010284424

>  <fragmenstein_outcome>  (933) 
too moved

>  <fragmenstein_mode>  (933) 
expansion

>  <fragmenstein_error>  (933) 


$$$$
C12304-P68
     RDKit          3D

 38 40  0  0  0  0  0  0  0  0999 V2000
    4.7284  -15.0059   17.8156 C   0  0  0  0  0  0  0  0  0  0  0  0
    5.5121  -15.4482   16.5827 C   0  0  0  0  0  0  0  0  0  0  0  0
    6.6694  -16.1776   17.0082 O   0  0  0  0  0  0  0  0  0  0  0  0
    4.5682  -16.4735   15.7137 C   0  0  0  0  0  0  0  0  0  0  0  0
    4.0056  -17.7880   16.2352 N   0  0  0  0  0  0  0  0  0  0  0  0
    3.9499  -19.1273   15.6166 C   0  0  0  0  0  0  0  0  0  0  0  0
    4.4073  -19.5252   14.5807 O   0  0  0  0  0  0  0  0  0  0  0  0
    3.1640  -20.2255   16.4151 C   0  0  0  0  0  0  0  0  0  0  0  0
    2.3500  -20.0968   17.4575 N   0  0  0  0  0  0  0  0  0  0  0  0
    1.9677  -21.3768   17.9644 C   0  0  0  0  0  0  0  0  0  0  0  0
    1.2961  -21.6537   19.1735 C   0  0  0  0  0  0  0  0  0  0  0  0
    0.9502  -22.9656   19.5168 C   0  0  0  0  0  0  0  0  0  0  0  0
    1.2450  -24.0320   18.6903 C   0  0  0  0  0  0  0  0  0  0  0  0
    2.0189  -23.7998   17.5563 C   0  0  0  0  0  0  0  0  0  0  0  0
    2.3557  -22.4737   17.2022 C   0  0  0  0  0  0  0  0  0  0  0  0
    3.3126  -21.9018   15.8910 S   0  0  0  0  0  0  0  0  0  0  0  0
    5.9747  -14.2050   15.6895 C   0  0  0  0  0  0  0  0  0  0  0  0
    6.8431  -13.0684   16.2589 C   0  0  0  0  0  0  0  0  0  0  0  0
    8.0673  -12.6001   15.6381 C   0  0  0  0  0  0  0  0  0  0  0  0
    8.6078  -11.4841   16.2430 C   0  0  0  0  0  0  0  0  0  0  0  0
    7.6842  -10.9980   17.5898 S   0  0  0  0  0  0  0  0  0  0  0  0
    6.5258  -12.2284   17.3129 C   0  0  0  0  0  0  0  0  0  0  0  0
    4.2857  -15.8664   18.3237 H   0  0  0  0  0  0  0  0  0  0  0  0
    3.9167  -14.3211   17.5516 H   0  0  0  0  0  0  0  0  0  0  0  0
    5.3789  -14.5288   18.5548 H   0  0  0  0  0  0  0  0  0  0  0  0
    7.2996  -15.5353   17.3834 H   0  0  0  0  0  0  0  0  0  0  0  0
    5.1442  -16.7589   14.8251 H   0  0  0  0  0  0  0  0  0  0  0  0
    3.6921  -15.9121   15.3686 H   0  0  0  0  0  0  0  0  0  0  0  0
    3.4377  -17.7877   17.0768 H   0  0  0  0  0  0  0  0  0  0  0  0
    1.0659  -20.8477   19.8599 H   0  0  0  0  0  0  0  0  0  0  0  0
    0.5518  -23.1402   20.5050 H   0  0  0  0  0  0  0  0  0  0  0  0
    1.0237  -25.0445   19.0073 H   0  0  0  0  0  0  0  0  0  0  0  0
    2.4143  -24.6350   16.9868 H   0  0  0  0  0  0  0  0  0  0  0  0
    5.0716  -13.7335   15.2781 H   0  0  0  0  0  0  0  0  0  0  0  0
    6.5235  -14.6222   14.8337 H   0  0  0  0  0  0  0  0  0  0  0  0
    8.5089  -13.0519   14.7566 H   0  0  0  0  0  0  0  0  0  0  0  0
    9.4963  -10.9391   15.9540 H   0  0  0  0  0  0  0  0  0  0  0  0
    5.6507  -12.2585   17.9463 H   0  0  0  0  0  0  0  0  0  0  0  0
  1  2  1  0
  2  3  1  0
  2  4  1  0
  4  5  1  0
  5  6  1  0
  6  7  2  0
  6  8  1  0
  8  9  2  0
  9 10  1  0
 10 11  2  0
 11 12  1  0
 12 13  2  0
 13 14  1  0
 14 15  2  0
 15 16  1  0
  2 17  1  0
 17 18  1  0
 18 19  1  0
 19 20  2  0
 20 21  1  0
 21 22  1  0
 16  8  1  0
 22 18  2  0
 15 10  1  0
  1 23  1  0
  1 24  1  0
  1 25  1  0
  3 26  1  0
  4 27  1  0
  4 28  1  0
  5 29  1  0
 11 30  1  0
 12 31  1  0
 13 32  1  0
 14 33  1  0
 17 34  1  0
 17 35  1  0
 19 36  1  0
 20 37  1  0
 22 38  1  0
M  END
>  <Energy>  (934) 
104.98910761941623

>  <compound_id>  (934) 
12304

>  <target_id>  (934) 
1

>  <reference_id>  (934) 
68

>  <inspiration_ids>  (934) 
[68, 20]

>  <energy_score>  (934) 
-62.23871332577204

>  <distance_score>  (934) 
16.05769703192129

>  <path>  (934) 
/opt/xchem-fragalysis-2/maxwin/BulkDock/SCRATCH/511015/C12304-P68/C12304-P68.minimised.mol

>  <scratch_subdir>  (934) 
/opt/xchem-fragalysis-2/maxwin/BulkDock/SCRATCH/511015/C12304-P68

>  <fragmenstein_runtime>  (934) 
25.15090823173523

>  <fragmenstein_outcome>  (934) 
too moved

>  <fragmenstein_mode>  (934) 
expansion

>  <fragmenstein_error>  (934) 


$$$$
C12304-P20
     RDKit          3D

 38 40  0  0  0  0  0  0  0  0999 V2000
    0.9552  -11.9780   18.2658 C   0  0  0  0  0  0  0  0  0  0  0  0
    2.0259  -12.8647   18.8957 C   0  0  0  0  0  0  0  0  0  0  0  0
    2.4320  -13.8658   17.9595 O   0  0  0  0  0  0  0  0  0  0  0  0
    1.4084  -13.6258   20.1989 C   0  0  0  0  0  0  0  0  0  0  0  0
    0.1577  -14.7628   20.2493 N   0  0  0  0  0  0  0  0  0  0  0  0
   -0.4022  -15.4847   19.6344 C   0  0  0  0  0  0  0  0  0  0  0  0
    0.1938  -15.2126   18.1618 O   0  0  0  0  0  0  0  0  0  0  0  0
   -1.4128  -16.5440   20.0244 C   0  0  0  0  0  0  0  0  0  0  0  0
   -1.6675  -17.0102   21.2506 N   0  0  0  0  0  0  0  0  0  0  0  0
   -2.6736  -18.0234   21.2418 C   0  0  0  0  0  0  0  0  0  0  0  0
   -3.2130  -18.7217   22.3559 C   0  0  0  0  0  0  0  0  0  0  0  0
   -4.2854  -19.6183   22.1964 C   0  0  0  0  0  0  0  0  0  0  0  0
   -4.7843  -19.9105   20.9336 C   0  0  0  0  0  0  0  0  0  0  0  0
   -4.2424  -19.2745   19.8102 C   0  0  0  0  0  0  0  0  0  0  0  0
   -3.2074  -18.3159   19.9871 C   0  0  0  0  0  0  0  0  0  0  0  0
   -2.4075  -17.3055   18.8160 S   0  0  0  0  0  0  0  0  0  0  0  0
    3.3254  -12.0148   19.3227 C   0  0  0  0  0  0  0  0  0  0  0  0
    3.9000  -10.9197   18.4097 C   0  0  0  0  0  0  0  0  0  0  0  0
    4.6021  -11.1331   17.1718 C   0  0  0  0  0  0  0  0  0  0  0  0
    5.0728   -9.9695   16.5961 C   0  0  0  0  0  0  0  0  0  0  0  0
    4.7050   -8.5976   17.5431 S   0  0  0  0  0  0  0  0  0  0  0  0
    3.9194   -9.5656   18.7189 C   0  0  0  0  0  0  0  0  0  0  0  0
    0.6653  -11.1640   18.9376 H   0  0  0  0  0  0  0  0  0  0  0  0
    1.3047  -11.5480   17.3211 H   0  0  0  0  0  0  0  0  0  0  0  0
    0.0576  -12.5556   18.0222 H   0  0  0  0  0  0  0  0  0  0  0  0
    1.6391  -14.4348   17.7993 H   0  0  0  0  0  0  0  0  0  0  0  0
    1.1271  -12.8216   20.9055 H   0  0  0  0  0  0  0  0  0  0  0  0
    2.2563  -14.1821   20.6220 H   0  0  0  0  0  0  0  0  0  0  0  0
    0.4501  -14.3479   21.0970 H   0  0  0  0  0  0  0  0  0  0  0  0
   -2.8089  -18.5209   23.3454 H   0  0  0  0  0  0  0  0  0  0  0  0
   -4.7283  -20.0585   23.0831 H   0  0  0  0  0  0  0  0  0  0  0  0
   -5.6077  -20.6099   20.8180 H   0  0  0  0  0  0  0  0  0  0  0  0
   -4.6337  -19.4748   18.8173 H   0  0  0  0  0  0  0  0  0  0  0  0
    4.1401  -12.7266   19.5144 H   0  0  0  0  0  0  0  0  0  0  0  0
    3.0969  -11.5369   20.2854 H   0  0  0  0  0  0  0  0  0  0  0  0
    4.7444  -12.1109   16.7240 H   0  0  0  0  0  0  0  0  0  0  0  0
    5.6164   -9.8695   15.6660 H   0  0  0  0  0  0  0  0  0  0  0  0
    3.5048   -9.0869   19.5955 H   0  0  0  0  0  0  0  0  0  0  0  0
  1  2  1  0
  2  3  1  0
  2  4  1  0
  4  5  1  0
  5  6  1  0
  6  7  2  0
  6  8  1  0
  8  9  2  0
  9 10  1  0
 10 11  2  0
 11 12  1  0
 12 13  2  0
 13 14  1  0
 14 15  2  0
 15 16  1  0
  2 17  1  0
 17 18  1  0
 18 19  1  0
 19 20  2  0
 20 21  1  0
 21 22  1  0
 16  8  1  0
 22 18  2  0
 15 10  1  0
  1 23  1  0
  1 24  1  0
  1 25  1  0
  3 26  1  0
  4 27  1  0
  4 28  1  0
  5 29  1  0
 11 30  1  0
 12 31  1  0
 13 32  1  0
 14 33  1  0
 17 34  1  0
 17 35  1  0
 19 36  1  0
 20 37  1  0
 22 38  1  0
M  END
>  <Energy>  (935) 
297.57231755921265

>  <compound_id>  (935) 
12304

>  <target_id>  (935) 
1

>  <reference_id>  (935) 
20

>  <inspiration_ids>  (935) 
[68, 20]

>  <energy_score>  (935) 
130.3444966140238

>  <distance_score>  (935) 
16.27623064932771

>  <path>  (935) 
/opt/xchem-fragalysis-2/maxwin/BulkDock/SCRATCH/511015/C12304-P20/C12304-P20.minimised.mol

>  <scratch_subdir>  (935) 
/opt/xchem-fragalysis-2/maxwin/BulkDock/SCRATCH/511015/C12304-P20

>  <fragmenstein_runtime>  (935) 
8.187598705291748

>  <fragmenstein_outcome>  (935) 
too moved

>  <fragmenstein_mode>  (935) 
expansion

>  <fragmenstein_error>  (935) 


$$$$
C12305-P68
     RDKit          3D

 37 39  0  0  0  0  0  0  0  0999 V2000
    3.3471  -16.6659   17.5382 C   0  0  0  0  0  0  0  0  0  0  0  0
    2.0230  -16.1153   17.9512 N   0  0  0  0  0  0  0  0  0  0  0  0
    2.5663  -14.8458   17.0630 C   0  0  0  0  0  0  0  0  0  0  0  0
    3.9114  -14.0137   17.1422 C   0  0  0  0  0  0  0  0  0  0  0  0
    4.6194  -13.4830   18.2805 C   0  0  0  0  0  0  0  0  0  0  0  0
    5.6693  -12.6399   17.9628 C   0  0  0  0  0  0  0  0  0  0  0  0
    5.8482  -12.4579   16.2804 S   0  0  0  0  0  0  0  0  0  0  0  0
    4.5279  -13.5144   15.9920 C   0  0  0  0  0  0  0  0  0  0  0  0
    1.8165  -16.2630   19.4207 C   0  0  0  0  0  0  0  0  0  0  0  0
    2.1013  -15.4835   20.2783 O   0  0  0  0  0  0  0  0  0  0  0  0
    1.0369  -17.8381   20.2118 C   0  0  0  0  0  0  0  0  0  0  0  0
    0.7739  -19.8728   20.5450 C   0  0  0  0  0  0  0  0  0  0  0  0
   -0.1215  -21.2053   20.9437 C   0  0  0  0  0  0  0  0  0  0  0  0
    0.1043  -22.3885   20.1752 C   0  0  0  0  0  0  0  0  0  0  0  0
   -0.5104  -23.6507   20.4101 C   0  0  0  0  0  0  0  0  0  0  0  0
   -1.3968  -23.8153   21.4818 C   0  0  0  0  0  0  0  0  0  0  0  0
   -2.0689  -24.9913   21.8188 N   0  0  0  0  0  0  0  0  0  0  0  0
   -2.8038  -24.7763   22.8820 C   0  0  0  0  0  0  0  0  0  0  0  0
   -2.7233  -23.1943   23.5426 S   0  0  0  0  0  0  0  0  0  0  0  0
   -1.6093  -22.6996   22.3020 C   0  0  0  0  0  0  0  0  0  0  0  0
   -0.9573  -21.4174   22.0692 C   0  0  0  0  0  0  0  0  0  0  0  0
    3.6237  -16.5814   16.4734 H   0  0  0  0  0  0  0  0  0  0  0  0
    3.2248  -17.7533   17.5610 H   0  0  0  0  0  0  0  0  0  0  0  0
    4.1599  -16.3487   18.1900 H   0  0  0  0  0  0  0  0  0  0  0  0
    2.4054  -15.0845   15.9970 H   0  0  0  0  0  0  0  0  0  0  0  0
    1.8129  -14.0806   17.3028 H   0  0  0  0  0  0  0  0  0  0  0  0
    4.3428  -13.6810   19.3083 H   0  0  0  0  0  0  0  0  0  0  0  0
    6.3262  -12.1236   18.6487 H   0  0  0  0  0  0  0  0  0  0  0  0
    4.2328  -13.6941   14.9664 H   0  0  0  0  0  0  0  0  0  0  0  0
    1.0353  -18.1057   21.2207 H   0  0  0  0  0  0  0  0  0  0  0  0
    0.4858  -17.0074   20.8065 H   0  0  0  0  0  0  0  0  0  0  0  0
    1.2020  -20.2558   19.5875 H   0  0  0  0  0  0  0  0  0  0  0  0
    1.5058  -20.0945   21.3536 H   0  0  0  0  0  0  0  0  0  0  0  0
    0.8105  -22.3490   19.3421 H   0  0  0  0  0  0  0  0  0  0  0  0
   -0.2783  -24.4933   19.7650 H   0  0  0  0  0  0  0  0  0  0  0  0
   -3.4248  -25.5449   23.3229 H   0  0  0  0  0  0  0  0  0  0  0  0
   -1.1268  -20.6018   22.7650 H   0  0  0  0  0  0  0  0  0  0  0  0
  1  2  1  0
  2  3  1  0
  3  4  1  0
  4  5  1  0
  5  6  2  0
  6  7  1  0
  7  8  1  0
  2  9  1  0
  9 10  2  0
  9 11  1  0
 11 12  1  0
 12 13  1  0
 13 14  2  0
 14 15  1  0
 15 16  2  0
 16 17  1  0
 17 18  2  0
 18 19  1  0
 19 20  1  0
 20 21  2  0
  8  4  2  0
 21 13  1  0
 20 16  1  0
  1 22  1  0
  1 23  1  0
  1 24  1  0
  3 25  1  0
  3 26  1  0
  5 27  1  0
  6 28  1  0
  8 29  1  0
 11 30  1  0
 11 31  1  0
 12 32  1  0
 12 33  1  0
 14 34  1  0
 15 35  1  0
 18 36  1  0
 21 37  1  0
M  END
>  <Energy>  (936) 
376.83883040031213

>  <compound_id>  (936) 
12305

>  <target_id>  (936) 
1

>  <reference_id>  (936) 
68

>  <inspiration_ids>  (936) 
[68, 20]

>  <energy_score>  (936) 
285.45538103673505

>  <distance_score>  (936) 
15.975484635960678

>  <path>  (936) 
/opt/xchem-fragalysis-2/maxwin/BulkDock/SCRATCH/511015/C12305-P68/C12305-P68.minimised.mol

>  <scratch_subdir>  (936) 
/opt/xchem-fragalysis-2/maxwin/BulkDock/SCRATCH/511015/C12305-P68

>  <fragmenstein_runtime>  (936) 
13.221015691757202

>  <fragmenstein_outcome>  (936) 
too moved

>  <fragmenstein_mode>  (936) 
expansion

>  <fragmenstein_error>  (936) 


$$$$
C12305-P20
     RDKit          3D

 37 39  0  0  0  0  0  0  0  0999 V2000
    0.4333  -24.1700   16.2776 C   0  0  0  0  0  0  0  0  0  0  0  0
    1.0624  -25.3282   16.9002 N   0  0  0  0  0  0  0  0  0  0  0  0
    2.4182  -24.4648   16.5885 C   0  0  0  0  0  0  0  0  0  0  0  0
    2.9105  -22.9749   16.1491 C   0  0  0  0  0  0  0  0  0  0  0  0
    4.3149  -22.5672   16.3459 C   0  0  0  0  0  0  0  0  0  0  0  0
    4.6637  -21.3486   15.7986 C   0  0  0  0  0  0  0  0  0  0  0  0
    3.3199  -20.5778   15.1053 S   0  0  0  0  0  0  0  0  0  0  0  0
    2.3109  -21.9381   15.4441 C   0  0  0  0  0  0  0  0  0  0  0  0
    0.3959  -25.6428   18.1776 C   0  0  0  0  0  0  0  0  0  0  0  0
    0.6357  -25.2652   19.2991 O   0  0  0  0  0  0  0  0  0  0  0  0
   -0.7678  -26.7596   17.9912 C   0  0  0  0  0  0  0  0  0  0  0  0
   -1.6028  -27.1137   19.3066 C   0  0  0  0  0  0  0  0  0  0  0  0
   -2.5511  -28.3347   19.4732 C   0  0  0  0  0  0  0  0  0  0  0  0
   -3.8732  -28.1431   19.9237 C   0  0  0  0  0  0  0  0  0  0  0  0
   -4.7054  -29.2143   20.3258 C   0  0  0  0  0  0  0  0  0  0  0  0
   -4.2201  -30.5345   20.3084 C   0  0  0  0  0  0  0  0  0  0  0  0
   -4.8993  -31.6675   20.7374 N   0  0  0  0  0  0  0  0  0  0  0  0
   -4.1331  -32.7217   20.5930 C   0  0  0  0  0  0  0  0  0  0  0  0
   -2.5818  -32.4388   19.9224 S   0  0  0  0  0  0  0  0  0  0  0  0
   -2.9212  -30.7418   19.8373 C   0  0  0  0  0  0  0  0  0  0  0  0
   -2.0860  -29.6656   19.4094 C   0  0  0  0  0  0  0  0  0  0  0  0
   -0.6454  -24.3864   16.2601 H   0  0  0  0  0  0  0  0  0  0  0  0
    0.4841  -23.2679   16.8933 H   0  0  0  0  0  0  0  0  0  0  0  0
    0.6736  -24.0721   15.2108 H   0  0  0  0  0  0  0  0  0  0  0  0
    2.8687  -25.0910   15.7997 H   0  0  0  0  0  0  0  0  0  0  0  0
    3.0086  -24.6831   17.4896 H   0  0  0  0  0  0  0  0  0  0  0  0
    5.0376  -23.2011   16.8446 H   0  0  0  0  0  0  0  0  0  0  0  0
    5.6405  -20.8910   15.7823 H   0  0  0  0  0  0  0  0  0  0  0  0
    1.3104  -21.8821   15.0546 H   0  0  0  0  0  0  0  0  0  0  0  0
   -0.2722  -27.6698   17.6350 H   0  0  0  0  0  0  0  0  0  0  0  0
   -1.4587  -26.4181   17.2137 H   0  0  0  0  0  0  0  0  0  0  0  0
   -0.8818  -27.2022   20.1315 H   0  0  0  0  0  0  0  0  0  0  0  0
   -2.1806  -26.2089   19.5411 H   0  0  0  0  0  0  0  0  0  0  0  0
   -4.2742  -27.1336   20.0101 H   0  0  0  0  0  0  0  0  0  0  0  0
   -5.7152  -29.0299   20.6801 H   0  0  0  0  0  0  0  0  0  0  0  0
   -4.4604  -33.7130   20.8777 H   0  0  0  0  0  0  0  0  0  0  0  0
   -1.0639  -29.8742   19.1036 H   0  0  0  0  0  0  0  0  0  0  0  0
  1  2  1  0
  2  3  1  0
  3  4  1  0
  4  5  1  0
  5  6  2  0
  6  7  1  0
  7  8  1  0
  2  9  1  0
  9 10  2  0
  9 11  1  0
 11 12  1  0
 12 13  1  0
 13 14  2  0
 14 15  1  0
 15 16  2  0
 16 17  1  0
 17 18  2  0
 18 19  1  0
 19 20  1  0
 20 21  2  0
  8  4  2  0
 21 13  1  0
 20 16  1  0
  1 22  1  0
  1 23  1  0
  1 24  1  0
  3 25  1  0
  3 26  1  0
  5 27  1  0
  6 28  1  0
  8 29  1  0
 11 30  1  0
 11 31  1  0
 12 32  1  0
 12 33  1  0
 14 34  1  0
 15 35  1  0
 18 36  1  0
 21 37  1  0
M  END
>  <Energy>  (937) 
135.58091563243289

>  <compound_id>  (937) 
12305

>  <target_id>  (937) 
1

>  <reference_id>  (937) 
20

>  <inspiration_ids>  (937) 
[68, 20]

>  <energy_score>  (937) 
44.197466268854555

>  <distance_score>  (937) 
16.203872869023513

>  <path>  (937) 
/opt/xchem-fragalysis-2/maxwin/BulkDock/SCRATCH/511015/C12305-P20/C12305-P20.minimised.mol

>  <scratch_subdir>  (937) 
/opt/xchem-fragalysis-2/maxwin/BulkDock/SCRATCH/511015/C12305-P20

>  <fragmenstein_runtime>  (937) 
13.854013681411743

>  <fragmenstein_outcome>  (937) 
too moved

>  <fragmenstein_mode>  (937) 
expansion

>  <fragmenstein_error>  (937) 


$$$$
C12311-P68
     RDKit          3D

 34 36  0  0  0  0  0  0  0  0999 V2000
    6.1004  -18.5324   14.2312 C   0  0  0  0  0  0  0  0  0  0  0  0
    5.6307  -18.3656   15.6797 C   0  0  0  0  0  0  0  0  0  0  0  0
    4.1196  -18.9784   15.9074 C   0  0  0  0  0  0  0  0  0  0  0  0
    3.2322  -18.1700   15.8073 O   0  0  0  0  0  0  0  0  0  0  0  0
    4.0656  -20.4593   16.1395 N   0  0  0  0  0  0  0  0  0  0  0  0
    2.8849  -21.4060   16.2185 C   0  0  0  0  0  0  0  0  0  0  0  0
    2.7372  -22.7082   17.1355 C   0  0  0  0  0  0  0  0  0  0  0  0
    3.4583  -23.8306   17.1553 N   0  0  0  0  0  0  0  0  0  0  0  0
    2.8902  -24.8035   18.0404 C   0  0  0  0  0  0  0  0  0  0  0  0
    3.5040  -25.9976   18.5484 C   0  0  0  0  0  0  0  0  0  0  0  0
    2.9130  -26.7443   19.6081 C   0  0  0  0  0  0  0  0  0  0  0  0
    1.6556  -26.3910   20.0857 C   0  0  0  0  0  0  0  0  0  0  0  0
    1.0039  -25.2882   19.5362 C   0  0  0  0  0  0  0  0  0  0  0  0
    1.6472  -24.4638   18.5802 C   0  0  0  0  0  0  0  0  0  0  0  0
    1.2292  -22.8853   18.0300 S   0  0  0  0  0  0  0  0  0  0  0  0
    5.8892  -16.8184   16.0073 C   0  0  0  0  0  0  0  0  0  0  0  0
    7.1895  -16.2774   16.3901 C   0  0  0  0  0  0  0  0  0  0  0  0
    7.2270  -14.8988   16.4760 C   0  0  0  0  0  0  0  0  0  0  0  0
    5.7122  -14.2073   16.1134 S   0  0  0  0  0  0  0  0  0  0  0  0
    5.0134  -15.7550   15.8325 C   0  0  0  0  0  0  0  0  0  0  0  0
    6.0114  -19.5794   13.9219 H   0  0  0  0  0  0  0  0  0  0  0  0
    5.4852  -17.9392   13.5450 H   0  0  0  0  0  0  0  0  0  0  0  0
    7.1454  -18.2310   14.1016 H   0  0  0  0  0  0  0  0  0  0  0  0
    6.3121  -18.9411   16.3121 H   0  0  0  0  0  0  0  0  0  0  0  0
    5.0033  -20.8120   16.2514 H   0  0  0  0  0  0  0  0  0  0  0  0
    2.0384  -20.7509   16.4395 H   0  0  0  0  0  0  0  0  0  0  0  0
    2.7583  -21.7593   15.1884 H   0  0  0  0  0  0  0  0  0  0  0  0
    4.4803  -26.2734   18.1651 H   0  0  0  0  0  0  0  0  0  0  0  0
    3.4446  -27.6015   20.0135 H   0  0  0  0  0  0  0  0  0  0  0  0
    1.1558  -26.9270   20.8825 H   0  0  0  0  0  0  0  0  0  0  0  0
    0.0413  -25.0325   19.9224 H   0  0  0  0  0  0  0  0  0  0  0  0
    8.0660  -16.8915   16.5586 H   0  0  0  0  0  0  0  0  0  0  0  0
    8.0712  -14.2712   16.7260 H   0  0  0  0  0  0  0  0  0  0  0  0
    3.9786  -15.8036   15.5178 H   0  0  0  0  0  0  0  0  0  0  0  0
  1  2  1  0
  2  3  1  0
  3  4  2  0
  3  5  1  0
  5  6  1  0
  6  7  1  0
  7  8  2  0
  8  9  1  0
  9 10  2  0
 10 11  1  0
 11 12  2  0
 12 13  1  0
 13 14  2  0
 14 15  1  0
  2 16  1  0
 16 17  1  0
 17 18  2  0
 18 19  1  0
 19 20  1  0
 15  7  1  0
 20 16  2  0
 14  9  1  0
  1 21  1  0
  1 22  1  0
  1 23  1  0
  2 24  1  0
  5 25  1  0
  6 26  1  0
  6 27  1  0
 10 28  1  0
 11 29  1  0
 12 30  1  0
 13 31  1  0
 17 32  1  0
 18 33  1  0
 20 34  1  0
M  END
>  <Energy>  (938) 
81.824870056903876

>  <compound_id>  (938) 
12311

>  <target_id>  (938) 
1

>  <reference_id>  (938) 
68

>  <inspiration_ids>  (938) 
[68, 20]

>  <energy_score>  (938) 
-52.23673432528926

>  <distance_score>  (938) 
16.35331550192977

>  <path>  (938) 
/opt/xchem-fragalysis-2/maxwin/BulkDock/SCRATCH/511015/C12311-P68/C12311-P68.minimised.mol

>  <scratch_subdir>  (938) 
/opt/xchem-fragalysis-2/maxwin/BulkDock/SCRATCH/511015/C12311-P68

>  <fragmenstein_runtime>  (938) 
14.33341908454895

>  <fragmenstein_outcome>  (938) 
too moved

>  <fragmenstein_mode>  (938) 
expansion

>  <fragmenstein_error>  (938) 


$$$$
C12311-P20
     RDKit          3D

 34 36  0  0  0  0  0  0  0  0999 V2000
    6.2190  -18.3582   25.0508 C   0  0  0  0  0  0  0  0  0  0  0  0
    5.0513  -17.8480   24.2341 C   0  0  0  0  0  0  0  0  0  0  0  0
    4.1090  -18.5520   23.0730 C   0  0  0  0  0  0  0  0  0  0  0  0
    4.3209  -18.0342   22.0104 O   0  0  0  0  0  0  0  0  0  0  0  0
    3.0630  -19.6173   23.4714 N   0  0  0  0  0  0  0  0  0  0  0  0
    1.5957  -20.4149   22.4382 C   0  0  0  0  0  0  0  0  0  0  0  0
    0.4701  -22.1909   22.8731 C   0  0  0  0  0  0  0  0  0  0  0  0
    0.3139  -23.3094   23.8353 N   0  0  0  0  0  0  0  0  0  0  0  0
    0.7933  -25.0855   23.5578 C   0  0  0  0  0  0  0  0  0  0  0  0
   -0.3974  -26.3046   23.6027 C   0  0  0  0  0  0  0  0  0  0  0  0
   -0.6581  -27.3066   22.6143 C   0  0  0  0  0  0  0  0  0  0  0  0
    0.2242  -27.4024   21.5548 C   0  0  0  0  0  0  0  0  0  0  0  0
    1.2659  -26.4576   21.3855 C   0  0  0  0  0  0  0  0  0  0  0  0
    1.3114  -25.2502   22.2139 C   0  0  0  0  0  0  0  0  0  0  0  0
    0.5162  -23.5125   21.0988 S   0  0  0  0  0  0  0  0  0  0  0  0
    5.6212  -16.3990   23.5844 C   0  0  0  0  0  0  0  0  0  0  0  0
    5.2630  -15.0630   24.0151 C   0  0  0  0  0  0  0  0  0  0  0  0
    5.8783  -14.0557   23.2904 C   0  0  0  0  0  0  0  0  0  0  0  0
    6.9085  -14.6771   22.0808 S   0  0  0  0  0  0  0  0  0  0  0  0
    6.5377  -16.2930   22.5371 C   0  0  0  0  0  0  0  0  0  0  0  0
    6.4349  -17.6656   25.8744 H   0  0  0  0  0  0  0  0  0  0  0  0
    5.9827  -19.3232   25.5105 H   0  0  0  0  0  0  0  0  0  0  0  0
    7.1484  -18.4354   24.4773 H   0  0  0  0  0  0  0  0  0  0  0  0
    4.2925  -17.5141   24.9603 H   0  0  0  0  0  0  0  0  0  0  0  0
    3.2173  -19.8947   24.4408 H   0  0  0  0  0  0  0  0  0  0  0  0
    1.2321  -19.6275   21.7407 H   0  0  0  0  0  0  0  0  0  0  0  0
    2.1953  -20.2617   21.4538 H   0  0  0  0  0  0  0  0  0  0  0  0
   -1.1949  -26.2483   24.3451 H   0  0  0  0  0  0  0  0  0  0  0  0
   -1.4997  -27.9834   22.7199 H   0  0  0  0  0  0  0  0  0  0  0  0
    0.0965  -28.1871   20.8124 H   0  0  0  0  0  0  0  0  0  0  0  0
    1.7864  -26.4398   20.4274 H   0  0  0  0  0  0  0  0  0  0  0  0
    4.5722  -14.8590   24.8238 H   0  0  0  0  0  0  0  0  0  0  0  0
    5.7667  -12.9880   23.4171 H   0  0  0  0  0  0  0  0  0  0  0  0
    6.9851  -17.1077   21.9837 H   0  0  0  0  0  0  0  0  0  0  0  0
  1  2  1  0
  2  3  1  0
  3  4  2  0
  3  5  1  0
  5  6  1  0
  6  7  1  0
  7  8  2  0
  8  9  1  0
  9 10  2  0
 10 11  1  0
 11 12  2  0
 12 13  1  0
 13 14  2  0
 14 15  1  0
  2 16  1  0
 16 17  1  0
 17 18  2  0
 18 19  1  0
 19 20  1  0
 15  7  1  0
 20 16  2  0
 14  9  1  0
  1 21  1  0
  1 22  1  0
  1 23  1  0
  2 24  1  0
  5 25  1  0
  6 26  1  0
  6 27  1  0
 10 28  1  0
 11 29  1  0
 12 30  1  0
 13 31  1  0
 17 32  1  0
 18 33  1  0
 20 34  1  0
M  END
>  <Energy>  (939) 
549.80640551027989

>  <compound_id>  (939) 
12311

>  <target_id>  (939) 
1

>  <reference_id>  (939) 
20

>  <inspiration_ids>  (939) 
[68, 20]

>  <energy_score>  (939) 
415.74480112808874

>  <distance_score>  (939) 
15.800504462665543

>  <path>  (939) 
/opt/xchem-fragalysis-2/maxwin/BulkDock/SCRATCH/511015/C12311-P20/C12311-P20.minimised.mol

>  <scratch_subdir>  (939) 
/opt/xchem-fragalysis-2/maxwin/BulkDock/SCRATCH/511015/C12311-P20

>  <fragmenstein_runtime>  (939) 
6.63044810295105

>  <fragmenstein_outcome>  (939) 
too moved

>  <fragmenstein_mode>  (939) 
expansion

>  <fragmenstein_error>  (939) 


$$$$
C12312-P68
     RDKit          3D

 43 45  0  0  0  0  0  0  0  0999 V2000
   -0.1830  -27.0510   21.5548 C   0  0  0  0  0  0  0  0  0  0  0  0
   -0.2597  -26.2433   20.3973 O   0  0  0  0  0  0  0  0  0  0  0  0
    0.9097  -25.8134   19.8149 C   0  0  0  0  0  0  0  0  0  0  0  0
    2.1499  -26.4368   19.8477 C   0  0  0  0  0  0  0  0  0  0  0  0
    3.1819  -26.0732   18.9126 C   0  0  0  0  0  0  0  0  0  0  0  0
    3.0485  -24.9250   18.0635 C   0  0  0  0  0  0  0  0  0  0  0  0
    4.0167  -24.3050   17.2209 N   0  0  0  0  0  0  0  0  0  0  0  0
    3.6725  -23.0447   16.9692 C   0  0  0  0  0  0  0  0  0  0  0  0
    4.5024  -21.9585   16.6431 N   0  0  0  0  0  0  0  0  0  0  0  0
    5.7225  -21.8871   15.7817 C   0  0  0  0  0  0  0  0  0  0  0  0
    6.2270  -22.7107   15.1084 O   0  0  0  0  0  0  0  0  0  0  0  0
    6.2599  -20.4215   16.0881 N   0  0  0  0  0  0  0  0  0  0  0  0
    7.5178  -19.7823   15.7246 C   0  0  0  0  0  0  0  0  0  0  0  0
    5.6725  -19.3350   14.9714 C   0  0  0  0  0  0  0  0  0  0  0  0
    4.2279  -18.9693   15.3565 C   0  0  0  0  0  0  0  0  0  0  0  0
    6.3918  -17.8749   14.4168 C   0  0  0  0  0  0  0  0  0  0  0  0
    6.7366  -16.6032   15.2281 C   0  0  0  0  0  0  0  0  0  0  0  0
    5.8082  -15.5926   15.6745 C   0  0  0  0  0  0  0  0  0  0  0  0
    6.4135  -14.4439   16.1523 C   0  0  0  0  0  0  0  0  0  0  0  0
    8.1132  -14.5428   16.0804 S   0  0  0  0  0  0  0  0  0  0  0  0
    8.0319  -16.1219   15.4114 C   0  0  0  0  0  0  0  0  0  0  0  0
    2.0613  -22.6665   17.4242 S   0  0  0  0  0  0  0  0  0  0  0  0
    1.8711  -24.2011   18.2094 C   0  0  0  0  0  0  0  0  0  0  0  0
    0.7921  -24.6821   18.9928 C   0  0  0  0  0  0  0  0  0  0  0  0
    0.6722  -26.7811   22.1770 H   0  0  0  0  0  0  0  0  0  0  0  0
   -1.0976  -26.9055   22.1351 H   0  0  0  0  0  0  0  0  0  0  0  0
   -0.1387  -28.0996   21.2781 H   0  0  0  0  0  0  0  0  0  0  0  0
    2.3929  -27.2312   20.5256 H   0  0  0  0  0  0  0  0  0  0  0  0
    4.1250  -26.6094   18.9048 H   0  0  0  0  0  0  0  0  0  0  0  0
    4.3054  -21.0449   17.0168 H   0  0  0  0  0  0  0  0  0  0  0  0
    7.8382  -19.9389   14.6864 H   0  0  0  0  0  0  0  0  0  0  0  0
    8.2606  -20.3986   16.2551 H   0  0  0  0  0  0  0  0  0  0  0  0
    7.6605  -18.8093   16.1957 H   0  0  0  0  0  0  0  0  0  0  0  0
    5.5929  -19.9440   14.0553 H   0  0  0  0  0  0  0  0  0  0  0  0
    3.5854  -19.8507   15.4114 H   0  0  0  0  0  0  0  0  0  0  0  0
    3.7780  -18.3079   14.6085 H   0  0  0  0  0  0  0  0  0  0  0  0
    4.1932  -18.4552   16.3182 H   0  0  0  0  0  0  0  0  0  0  0  0
    5.6979  -17.5243   13.6359 H   0  0  0  0  0  0  0  0  0  0  0  0
    7.2888  -18.1466   13.8428 H   0  0  0  0  0  0  0  0  0  0  0  0
    4.7305  -15.6891   15.6062 H   0  0  0  0  0  0  0  0  0  0  0  0
    5.9300  -13.5528   16.5290 H   0  0  0  0  0  0  0  0  0  0  0  0
    8.9563  -16.6089   15.1314 H   0  0  0  0  0  0  0  0  0  0  0  0
   -0.1283  -24.1367   18.9193 H   0  0  0  0  0  0  0  0  0  0  0  0
  1  2  1  0
  2  3  1  0
  3  4  2  0
  4  5  1  0
  5  6  2  0
  6  7  1  0
  7  8  2  0
  8  9  1  0
  9 10  1  0
 10 11  2  0
 10 12  1  0
 12 13  1  0
 12 14  1  0
 14 15  1  0
 14 16  1  0
 16 17  1  0
 17 18  1  0
 18 19  2  0
 19 20  1  0
 20 21  1  0
  8 22  1  0
 22 23  1  0
 23 24  2  0
 24  3  1  0
 23  6  1  0
 21 17  2  0
  1 25  1  0
  1 26  1  0
  1 27  1  0
  4 28  1  0
  5 29  1  0
  9 30  1  0
 13 31  1  0
 13 32  1  0
 13 33  1  0
 14 34  1  0
 15 35  1  0
 15 36  1  0
 15 37  1  0
 16 38  1  0
 16 39  1  0
 18 40  1  0
 19 41  1  0
 21 42  1  0
 24 43  1  0
M  END
>  <Energy>  (940) 
97.583612976721781

>  <compound_id>  (940) 
12312

>  <target_id>  (940) 
1

>  <reference_id>  (940) 
68

>  <inspiration_ids>  (940) 
[68, 20]

>  <energy_score>  (940) 
31.474665696540228

>  <distance_score>  (940) 
15.965940417456784

>  <path>  (940) 
/opt/xchem-fragalysis-2/maxwin/BulkDock/SCRATCH/511015/C12312-P68/C12312-P68.minimised.mol

>  <scratch_subdir>  (940) 
/opt/xchem-fragalysis-2/maxwin/BulkDock/SCRATCH/511015/C12312-P68

>  <fragmenstein_runtime>  (940) 
37.34706926345825

>  <fragmenstein_outcome>  (940) 
too moved

>  <fragmenstein_mode>  (940) 
expansion

>  <fragmenstein_error>  (940) 


$$$$
C12312-P20
     RDKit          3D

 43 45  0  0  0  0  0  0  0  0999 V2000
   -6.4923  -26.3489   22.5238 C   0  0  0  0  0  0  0  0  0  0  0  0
   -7.0103  -25.7290   21.3397 O   0  0  0  0  0  0  0  0  0  0  0  0
   -6.8429  -24.3689   21.2909 C   0  0  0  0  0  0  0  0  0  0  0  0
   -7.1101  -23.5543   22.3805 C   0  0  0  0  0  0  0  0  0  0  0  0
   -6.7994  -22.1861   22.3208 C   0  0  0  0  0  0  0  0  0  0  0  0
   -6.1702  -21.6207   21.1776 C   0  0  0  0  0  0  0  0  0  0  0  0
   -5.5806  -20.3356   21.0818 N   0  0  0  0  0  0  0  0  0  0  0  0
   -5.0380  -20.0981   19.8985 C   0  0  0  0  0  0  0  0  0  0  0  0
   -4.4111  -18.9207   19.4060 N   0  0  0  0  0  0  0  0  0  0  0  0
   -4.1447  -17.5816   20.0833 C   0  0  0  0  0  0  0  0  0  0  0  0
   -4.3274  -17.2441   21.1990 O   0  0  0  0  0  0  0  0  0  0  0  0
   -3.6570  -16.7029   18.8714 N   0  0  0  0  0  0  0  0  0  0  0  0
   -3.4163  -15.2559   18.7783 C   0  0  0  0  0  0  0  0  0  0  0  0
   -1.9888  -16.7337   18.7546 C   0  0  0  0  0  0  0  0  0  0  0  0
   -1.6149  -16.9254   17.2683 C   0  0  0  0  0  0  0  0  0  0  0  0
   -0.8555  -15.7220   19.4882 C   0  0  0  0  0  0  0  0  0  0  0  0
   -0.1054  -14.5387   18.7745 C   0  0  0  0  0  0  0  0  0  0  0  0
    0.9285  -14.6502   17.7618 C   0  0  0  0  0  0  0  0  0  0  0  0
    1.5432  -13.4536   17.4383 C   0  0  0  0  0  0  0  0  0  0  0  0
    0.9085  -12.1567   18.3428 S   0  0  0  0  0  0  0  0  0  0  0  0
   -0.1866  -13.2035   19.1595 C   0  0  0  0  0  0  0  0  0  0  0  0
   -5.2988  -21.4342   18.7987 S   0  0  0  0  0  0  0  0  0  0  0  0
   -6.0266  -22.4275   20.0490 C   0  0  0  0  0  0  0  0  0  0  0  0
   -6.3970  -23.8042   20.0770 C   0  0  0  0  0  0  0  0  0  0  0  0
   -7.1986  -26.2624   23.3536 H   0  0  0  0  0  0  0  0  0  0  0  0
   -6.3365  -27.4108   22.3135 H   0  0  0  0  0  0  0  0  0  0  0  0
   -5.5263  -25.9200   22.8131 H   0  0  0  0  0  0  0  0  0  0  0  0
   -7.5248  -23.9555   23.2995 H   0  0  0  0  0  0  0  0  0  0  0  0
   -6.9497  -21.5542   23.1923 H   0  0  0  0  0  0  0  0  0  0  0  0
   -4.2146  -18.8412   18.4211 H   0  0  0  0  0  0  0  0  0  0  0  0
   -2.9339  -14.8764   17.8727 H   0  0  0  0  0  0  0  0  0  0  0  0
   -4.4367  -14.8538   18.6865 H   0  0  0  0  0  0  0  0  0  0  0  0
   -3.0985  -14.8107   19.7256 H   0  0  0  0  0  0  0  0  0  0  0  0
   -1.7975  -17.6944   19.2449 H   0  0  0  0  0  0  0  0  0  0  0  0
   -0.6499  -17.4346   17.1789 H   0  0  0  0  0  0  0  0  0  0  0  0
   -1.5362  -15.9752   16.7319 H   0  0  0  0  0  0  0  0  0  0  0  0
   -2.3770  -17.5081   16.7439 H   0  0  0  0  0  0  0  0  0  0  0  0
   -0.0475  -16.4070   19.7775 H   0  0  0  0  0  0  0  0  0  0  0  0
   -1.2621  -15.3646   20.4408 H   0  0  0  0  0  0  0  0  0  0  0  0
    1.2230  -15.5904   17.3095 H   0  0  0  0  0  0  0  0  0  0  0  0
    2.3367  -13.2898   16.7219 H   0  0  0  0  0  0  0  0  0  0  0  0
   -0.8290  -12.7828   19.9217 H   0  0  0  0  0  0  0  0  0  0  0  0
   -6.2449  -24.4315   19.2041 H   0  0  0  0  0  0  0  0  0  0  0  0
  1  2  1  0
  2  3  1  0
  3  4  2  0
  4  5  1  0
  5  6  2  0
  6  7  1  0
  7  8  2  0
  8  9  1  0
  9 10  1  0
 10 11  2  0
 10 12  1  0
 12 13  1  0
 12 14  1  0
 14 15  1  0
 14 16  1  0
 16 17  1  0
 17 18  1  0
 18 19  2  0
 19 20  1  0
 20 21  1  0
  8 22  1  0
 22 23  1  0
 23 24  2  0
 24  3  1  0
 23  6  1  0
 21 17  2  0
  1 25  1  0
  1 26  1  0
  1 27  1  0
  4 28  1  0
  5 29  1  0
  9 30  1  0
 13 31  1  0
 13 32  1  0
 13 33  1  0
 14 34  1  0
 15 35  1  0
 15 36  1  0
 15 37  1  0
 16 38  1  0
 16 39  1  0
 18 40  1  0
 19 41  1  0
 21 42  1  0
 24 43  1  0
M  END
>  <Energy>  (941) 
80.916163509693405

>  <compound_id>  (941) 
12312

>  <target_id>  (941) 
1

>  <reference_id>  (941) 
20

>  <inspiration_ids>  (941) 
[68, 20]

>  <energy_score>  (941) 
14.807216229514552

>  <distance_score>  (941) 
15.70994191766826

>  <path>  (941) 
/opt/xchem-fragalysis-2/maxwin/BulkDock/SCRATCH/511015/C12312-P20/C12312-P20.minimised.mol

>  <scratch_subdir>  (941) 
/opt/xchem-fragalysis-2/maxwin/BulkDock/SCRATCH/511015/C12312-P20

>  <fragmenstein_runtime>  (941) 
20.099172592163086

>  <fragmenstein_outcome>  (941) 
too moved

>  <fragmenstein_mode>  (941) 
expansion

>  <fragmenstein_error>  (941) 


$$$$
C12313-P68
     RDKit          3D

 44 46  0  0  0  0  0  0  0  0999 V2000
   -0.0266  -28.5167   19.3834 C   0  0  0  0  0  0  0  0  0  0  0  0
    0.2456  -27.2230   18.7005 C   0  0  0  0  0  0  0  0  0  0  0  0
   -0.6469  -26.5292   18.0324 N   0  0  0  0  0  0  0  0  0  0  0  0
   -0.0530  -25.3772   17.5144 C   0  0  0  0  0  0  0  0  0  0  0  0
   -0.6815  -24.4092   16.7198 C   0  0  0  0  0  0  0  0  0  0  0  0
    0.0513  -23.2749   16.2638 C   0  0  0  0  0  0  0  0  0  0  0  0
    1.4095  -22.9967   16.5718 C   0  0  0  0  0  0  0  0  0  0  0  0
    1.9032  -21.6797   16.1312 N   0  0  0  0  0  0  0  0  0  0  0  0
    3.3044  -20.9898   16.3296 C   0  0  0  0  0  0  0  0  0  0  0  0
    4.3014  -21.4135   16.8109 O   0  0  0  0  0  0  0  0  0  0  0  0
    2.9705  -19.5539   15.8076 N   0  0  0  0  0  0  0  0  0  0  0  0
    3.8001  -18.2314   15.8597 C   0  0  0  0  0  0  0  0  0  0  0  0
    5.3695  -17.7993   15.5617 C   0  0  0  0  0  0  0  0  0  0  0  0
    5.6704  -16.2552   15.8790 C   0  0  0  0  0  0  0  0  0  0  0  0
    5.2324  -15.1251   15.0752 C   0  0  0  0  0  0  0  0  0  0  0  0
    5.7505  -13.9084   15.4766 C   0  0  0  0  0  0  0  0  0  0  0  0
    6.7703  -14.0763   16.8322 S   0  0  0  0  0  0  0  0  0  0  0  0
    6.5201  -15.7781   16.8728 C   0  0  0  0  0  0  0  0  0  0  0  0
    5.8730  -17.9691   14.1727 N   0  0  0  0  0  0  0  0  0  0  0  0
    5.3534  -19.1967   13.5635 C   0  0  0  0  0  0  0  0  0  0  0  0
    7.3409  -18.0031   14.1261 C   0  0  0  0  0  0  0  0  0  0  0  0
    2.0344  -23.9872   17.3500 C   0  0  0  0  0  0  0  0  0  0  0  0
    1.3005  -25.1685   17.8046 C   0  0  0  0  0  0  0  0  0  0  0  0
    1.8226  -26.5381   18.7444 S   0  0  0  0  0  0  0  0  0  0  0  0
    0.1754  -28.4405   20.4564 H   0  0  0  0  0  0  0  0  0  0  0  0
   -1.0761  -28.8021   19.2578 H   0  0  0  0  0  0  0  0  0  0  0  0
    0.5923  -29.3161   18.9638 H   0  0  0  0  0  0  0  0  0  0  0  0
   -1.7255  -24.5292   16.4480 H   0  0  0  0  0  0  0  0  0  0  0  0
   -0.5011  -22.5734   15.6390 H   0  0  0  0  0  0  0  0  0  0  0  0
    1.2922  -21.0626   15.6092 H   0  0  0  0  0  0  0  0  0  0  0  0
    2.0000  -19.5119   15.5348 H   0  0  0  0  0  0  0  0  0  0  0  0
    3.2155  -17.5852   15.1897 H   0  0  0  0  0  0  0  0  0  0  0  0
    3.5736  -17.8527   16.8625 H   0  0  0  0  0  0  0  0  0  0  0  0
    5.9801  -18.4153   16.2310 H   0  0  0  0  0  0  0  0  0  0  0  0
    4.5901  -15.2310   14.2086 H   0  0  0  0  0  0  0  0  0  0  0  0
    5.5817  -12.9376   15.0314 H   0  0  0  0  0  0  0  0  0  0  0  0
    7.0456  -16.3553   17.6198 H   0  0  0  0  0  0  0  0  0  0  0  0
    5.5834  -20.0855   14.1618 H   0  0  0  0  0  0  0  0  0  0  0  0
    4.2713  -19.1330   13.4139 H   0  0  0  0  0  0  0  0  0  0  0  0
    5.7777  -19.3416   12.5628 H   0  0  0  0  0  0  0  0  0  0  0  0
    7.6871  -18.1120   13.0916 H   0  0  0  0  0  0  0  0  0  0  0  0
    7.7520  -18.8338   14.7116 H   0  0  0  0  0  0  0  0  0  0  0  0
    7.7849  -17.0717   14.4907 H   0  0  0  0  0  0  0  0  0  0  0  0
    3.0757  -23.8745   17.6420 H   0  0  0  0  0  0  0  0  0  0  0  0
  1  2  1  0
  2  3  2  0
  3  4  1  0
  4  5  2  0
  5  6  1  0
  6  7  2  0
  7  8  1  0
  8  9  1  0
  9 10  2  0
  9 11  1  0
 11 12  1  0
 12 13  1  0
 13 14  1  0
 14 15  1  0
 15 16  2  0
 16 17  1  0
 17 18  1  0
 13 19  1  0
 19 20  1  0
 19 21  1  0
  7 22  1  0
 22 23  2  0
 23 24  1  0
 24  2  1  0
 23  4  1  0
 18 14  2  0
  1 25  1  0
  1 26  1  0
  1 27  1  0
  5 28  1  0
  6 29  1  0
  8 30  1  0
 11 31  1  0
 12 32  1  0
 12 33  1  0
 13 34  1  0
 15 35  1  0
 16 36  1  0
 18 37  1  0
 20 38  1  0
 20 39  1  0
 20 40  1  0
 21 41  1  0
 21 42  1  0
 21 43  1  0
 22 44  1  0
M  END
>  <Energy>  (942) 
41.829812836304022

>  <compound_id>  (942) 
12313

>  <target_id>  (942) 
1

>  <reference_id>  (942) 
68

>  <inspiration_ids>  (942) 
[68, 20]

>  <energy_score>  (942) 
-68.05825257484264

>  <distance_score>  (942) 
16.33304779053614

>  <path>  (942) 
/opt/xchem-fragalysis-2/maxwin/BulkDock/SCRATCH/511015/C12313-P68/C12313-P68.minimised.mol

>  <scratch_subdir>  (942) 
/opt/xchem-fragalysis-2/maxwin/BulkDock/SCRATCH/511015/C12313-P68

>  <fragmenstein_runtime>  (942) 
29.79064965248108

>  <fragmenstein_outcome>  (942) 
too moved

>  <fragmenstein_mode>  (942) 
expansion

>  <fragmenstein_error>  (942) 


$$$$
C12313-P20
     RDKit          3D

 44 46  0  0  0  0  0  0  0  0999 V2000
   -5.4023  -28.9290   25.3288 C   0  0  0  0  0  0  0  0  0  0  0  0
   -4.8454  -27.6108   24.9225 C   0  0  0  0  0  0  0  0  0  0  0  0
   -5.4659  -26.4543   25.0622 N   0  0  0  0  0  0  0  0  0  0  0  0
   -4.6535  -25.4084   24.6363 C   0  0  0  0  0  0  0  0  0  0  0  0
   -4.9263  -24.0084   24.6260 C   0  0  0  0  0  0  0  0  0  0  0  0
   -3.9339  -23.0263   24.2795 C   0  0  0  0  0  0  0  0  0  0  0  0
   -2.6571  -23.4273   23.9584 C   0  0  0  0  0  0  0  0  0  0  0  0
   -1.4464  -22.7213   23.7290 N   0  0  0  0  0  0  0  0  0  0  0  0
   -1.1928  -21.2258   23.3551 C   0  0  0  0  0  0  0  0  0  0  0  0
   -1.9437  -20.3161   23.2539 O   0  0  0  0  0  0  0  0  0  0  0  0
    0.3723  -21.3304   23.0445 N   0  0  0  0  0  0  0  0  0  0  0  0
    1.7241  -20.0083   22.2062 C   0  0  0  0  0  0  0  0  0  0  0  0
    3.6094  -19.0780   22.5505 C   0  0  0  0  0  0  0  0  0  0  0  0
    5.1757  -18.5128   21.2252 C   0  0  0  0  0  0  0  0  0  0  0  0
    6.6467  -19.3813   20.4672 C   0  0  0  0  0  0  0  0  0  0  0  0
    7.7523  -18.8369   19.8264 C   0  0  0  0  0  0  0  0  0  0  0  0
    7.3453  -17.3072   19.3256 S   0  0  0  0  0  0  0  0  0  0  0  0
    5.7924  -17.4659   20.2239 C   0  0  0  0  0  0  0  0  0  0  0  0
    3.4044  -17.5972   23.8168 N   0  0  0  0  0  0  0  0  0  0  0  0
    3.1548  -18.3619   25.0943 C   0  0  0  0  0  0  0  0  0  0  0  0
    4.6435  -16.4259   24.3855 C   0  0  0  0  0  0  0  0  0  0  0  0
   -2.4208  -24.8430   23.8802 C   0  0  0  0  0  0  0  0  0  0  0  0
   -3.3950  -25.8059   24.2105 C   0  0  0  0  0  0  0  0  0  0  0  0
   -3.2880  -27.5274   24.2135 S   0  0  0  0  0  0  0  0  0  0  0  0
   -5.6431  -29.5354   24.4502 H   0  0  0  0  0  0  0  0  0  0  0  0
   -4.6921  -29.4816   25.9524 H   0  0  0  0  0  0  0  0  0  0  0  0
   -6.3165  -28.7877   25.9131 H   0  0  0  0  0  0  0  0  0  0  0  0
   -5.9144  -23.6734   24.9328 H   0  0  0  0  0  0  0  0  0  0  0  0
   -4.1819  -21.9685   24.3291 H   0  0  0  0  0  0  0  0  0  0  0  0
   -0.5937  -23.2392   23.6412 H   0  0  0  0  0  0  0  0  0  0  0  0
    0.6371  -22.1684   23.1473 H   0  0  0  0  0  0  0  0  0  0  0  0
    1.8660  -20.0997   21.1213 H   0  0  0  0  0  0  0  0  0  0  0  0
    2.4022  -20.4414   22.8109 H   0  0  0  0  0  0  0  0  0  0  0  0
    3.9474  -19.7238   23.3336 H   0  0  0  0  0  0  0  0  0  0  0  0
    6.6243  -20.4717   20.4833 H   0  0  0  0  0  0  0  0  0  0  0  0
    8.6479  -19.3419   19.4956 H   0  0  0  0  0  0  0  0  0  0  0  0
    5.3487  -16.6531   19.6880 H   0  0  0  0  0  0  0  0  0  0  0  0
    3.8734  -19.1370   25.3405 H   0  0  0  0  0  0  0  0  0  0  0  0
    3.0998  -17.7807   26.0193 H   0  0  0  0  0  0  0  0  0  0  0  0
    2.2189  -18.8242   24.8947 H   0  0  0  0  0  0  0  0  0  0  0  0
    5.7272  -16.5776   24.2666 H   0  0  0  0  0  0  0  0  0  0  0  0
    4.3689  -15.4445   23.9702 H   0  0  0  0  0  0  0  0  0  0  0  0
    4.5997  -16.3854   25.4901 H   0  0  0  0  0  0  0  0  0  0  0  0
   -1.4399  -25.2097   23.5822 H   0  0  0  0  0  0  0  0  0  0  0  0
  1  2  1  0
  2  3  2  0
  3  4  1  0
  4  5  2  0
  5  6  1  0
  6  7  2  0
  7  8  1  0
  8  9  1  0
  9 10  2  0
  9 11  1  0
 11 12  1  0
 12 13  1  0
 13 14  1  0
 14 15  1  0
 15 16  2  0
 16 17  1  0
 17 18  1  0
 13 19  1  0
 19 20  1  0
 19 21  1  0
  7 22  1  0
 22 23  2  0
 23 24  1  0
 24  2  1  0
 23  4  1  0
 18 14  2  0
  1 25  1  0
  1 26  1  0
  1 27  1  0
  5 28  1  0
  6 29  1  0
  8 30  1  0
 11 31  1  0
 12 32  1  0
 12 33  1  0
 13 34  1  0
 15 35  1  0
 16 36  1  0
 18 37  1  0
 20 38  1  0
 20 39  1  0
 20 40  1  0
 21 41  1  0
 21 42  1  0
 21 43  1  0
 22 44  1  0
M  END
>  <Energy>  (943) 
654.09821330877298

>  <compound_id>  (943) 
12313

>  <target_id>  (943) 
1

>  <reference_id>  (943) 
20

>  <inspiration_ids>  (943) 
[68, 20]

>  <energy_score>  (943) 
544.2101478976176

>  <distance_score>  (943) 
15.464147041361596

>  <path>  (943) 
/opt/xchem-fragalysis-2/maxwin/BulkDock/SCRATCH/511015/C12313-P20/C12313-P20.minimised.mol

>  <scratch_subdir>  (943) 
/opt/xchem-fragalysis-2/maxwin/BulkDock/SCRATCH/511015/C12313-P20

>  <fragmenstein_runtime>  (943) 
17.187961101531982

>  <fragmenstein_outcome>  (943) 
too moved

>  <fragmenstein_mode>  (943) 
expansion

>  <fragmenstein_error>  (943) 


$$$$
C12315-P68
     RDKit          3D

 38 41  0  0  0  0  0  0  0  0999 V2000
    4.2857  -19.0538   15.9765 O   0  0  0  0  0  0  0  0  0  0  0  0
    3.3495  -18.7770   16.6885 C   0  0  0  0  0  0  0  0  0  0  0  0
    2.9884  -17.4589   17.3869 N   0  0  0  0  0  0  0  0  0  0  0  0
    3.7718  -16.0981   17.4837 C   0  0  0  0  0  0  0  0  0  0  0  0
    3.3234  -14.7873   18.4371 C   0  0  0  0  0  0  0  0  0  0  0  0
    4.3333  -13.4558   19.0760 C   0  0  0  0  0  0  0  0  0  0  0  0
    4.4934  -12.9263   20.4591 C   0  0  0  0  0  0  0  0  0  0  0  0
    5.9453  -11.8339   20.6813 C   0  0  0  0  0  0  0  0  0  0  0  0
    6.5479  -11.2343   19.3564 C   0  0  0  0  0  0  0  0  0  0  0  0
    8.4242  -10.6320   18.3389 C   0  0  0  0  0  0  0  0  0  0  0  0
    9.9549  -11.2972   18.2850 C   0  0  0  0  0  0  0  0  0  0  0  0
   10.7836  -11.2154   17.1914 C   0  0  0  0  0  0  0  0  0  0  0  0
    9.9626  -10.4816   15.9591 S   0  0  0  0  0  0  0  0  0  0  0  0
    8.6325  -10.1156   17.0360 C   0  0  0  0  0  0  0  0  0  0  0  0
    5.8106  -13.2280   19.9055 S   0  0  0  0  0  0  0  0  0  0  0  0
    2.4067  -20.1428   17.0094 C   0  0  0  0  0  0  0  0  0  0  0  0
    1.5172  -20.2143   18.0842 C   0  0  0  0  0  0  0  0  0  0  0  0
    0.8125  -21.3754   18.5612 C   0  0  0  0  0  0  0  0  0  0  0  0
    0.9717  -22.6100   17.9173 C   0  0  0  0  0  0  0  0  0  0  0  0
    0.3505  -23.8157   18.2548 N   0  0  0  0  0  0  0  0  0  0  0  0
    0.7507  -24.7492   17.4243 C   0  0  0  0  0  0  0  0  0  0  0  0
    1.8705  -24.2546   16.2176 S   0  0  0  0  0  0  0  0  0  0  0  0
    1.8508  -22.6217   16.8269 C   0  0  0  0  0  0  0  0  0  0  0  0
    2.5716  -21.4195   16.3886 C   0  0  0  0  0  0  0  0  0  0  0  0
    2.1065  -17.5538   17.8302 H   0  0  0  0  0  0  0  0  0  0  0  0
    3.9731  -15.8473   16.4581 H   0  0  0  0  0  0  0  0  0  0  0  0
    4.6954  -16.4036   17.9239 H   0  0  0  0  0  0  0  0  0  0  0  0
    2.7047  -15.1542   19.2595 H   0  0  0  0  0  0  0  0  0  0  0  0
    2.5699  -14.2853   17.8291 H   0  0  0  0  0  0  0  0  0  0  0  0
    3.8064  -13.1185   21.2892 H   0  0  0  0  0  0  0  0  0  0  0  0
    5.9809  -11.3915   21.6741 H   0  0  0  0  0  0  0  0  0  0  0  0
   10.3339  -11.9809   19.0079 H   0  0  0  0  0  0  0  0  0  0  0  0
   11.7491  -11.6803   17.0486 H   0  0  0  0  0  0  0  0  0  0  0  0
    7.9286   -9.7007   16.3721 H   0  0  0  0  0  0  0  0  0  0  0  0
    1.3681  -19.2989   18.6044 H   0  0  0  0  0  0  0  0  0  0  0  0
    0.1647  -21.3067   19.4302 H   0  0  0  0  0  0  0  0  0  0  0  0
    0.4022  -25.7713   17.4872 H   0  0  0  0  0  0  0  0  0  0  0  0
    3.2655  -21.5053   15.5540 H   0  0  0  0  0  0  0  0  0  0  0  0
  1  2  2  0
  2  3  1  0
  3  4  1  0
  4  5  1  0
  5  6  1  0
  6  7  2  0
  7  8  1  0
  8  9  2  0
  9 10  1  0
 10 11  1  0
 11 12  2  0
 12 13  1  0
 13 14  1  0
  9 15  1  0
  2 16  1  0
 16 17  2  0
 17 18  1  0
 18 19  2  0
 19 20  1  0
 20 21  2  0
 21 22  1  0
 22 23  1  0
 23 24  2  0
 15  6  1  0
 24 16  1  0
 14 10  2  0
 23 19  1  0
  3 25  1  0
  4 26  1  0
  4 27  1  0
  5 28  1  0
  5 29  1  0
  7 30  1  0
  8 31  1  0
 11 32  1  0
 12 33  1  0
 14 34  1  0
 17 35  1  0
 18 36  1  0
 21 37  1  0
 24 38  1  0
M  END
>  <Energy>  (944) 
576.30782547225817

>  <compound_id>  (944) 
12315

>  <target_id>  (944) 
1

>  <reference_id>  (944) 
68

>  <inspiration_ids>  (944) 
[68, 20]

>  <energy_score>  (944) 
466.347748275678

>  <distance_score>  (944) 
16.327579087298332

>  <path>  (944) 
/opt/xchem-fragalysis-2/maxwin/BulkDock/SCRATCH/511015/C12315-P68/C12315-P68.minimised.mol

>  <scratch_subdir>  (944) 
/opt/xchem-fragalysis-2/maxwin/BulkDock/SCRATCH/511015/C12315-P68

>  <fragmenstein_runtime>  (944) 
19.15405559539795

>  <fragmenstein_outcome>  (944) 
too moved

>  <fragmenstein_mode>  (944) 
expansion

>  <fragmenstein_error>  (944) 


$$$$
C12315-P20
     RDKit          3D

 38 41  0  0  0  0  0  0  0  0999 V2000
   -1.8245  -17.1517   19.0260 O   0  0  0  0  0  0  0  0  0  0  0  0
   -1.3485  -18.1923   18.5772 C   0  0  0  0  0  0  0  0  0  0  0  0
    0.2921  -18.4719   17.9827 N   0  0  0  0  0  0  0  0  0  0  0  0
    1.8003  -17.3534   17.9674 C   0  0  0  0  0  0  0  0  0  0  0  0
    2.5374  -15.3516   18.0402 C   0  0  0  0  0  0  0  0  0  0  0  0
    3.8670  -13.9696   18.5215 C   0  0  0  0  0  0  0  0  0  0  0  0
    4.5129  -13.1150   19.6898 C   0  0  0  0  0  0  0  0  0  0  0  0
    5.7545  -12.2246   19.7353 C   0  0  0  0  0  0  0  0  0  0  0  0
    6.0046  -11.4683   18.5884 C   0  0  0  0  0  0  0  0  0  0  0  0
    7.8121  -10.7139   17.5608 C   0  0  0  0  0  0  0  0  0  0  0  0
    8.2008  -10.2894   16.0710 C   0  0  0  0  0  0  0  0  0  0  0  0
    9.4492  -10.5385   15.5359 C   0  0  0  0  0  0  0  0  0  0  0  0
   10.4219  -11.2604   16.6671 S   0  0  0  0  0  0  0  0  0  0  0  0
    9.1662  -11.0434   17.8654 C   0  0  0  0  0  0  0  0  0  0  0  0
    3.9496  -11.9925   17.5697 S   0  0  0  0  0  0  0  0  0  0  0  0
   -2.5468  -19.4100   18.5541 C   0  0  0  0  0  0  0  0  0  0  0  0
   -3.1717  -19.6253   19.8175 C   0  0  0  0  0  0  0  0  0  0  0  0
   -3.9543  -20.7694   20.1511 C   0  0  0  0  0  0  0  0  0  0  0  0
   -4.1747  -21.7708   19.1922 C   0  0  0  0  0  0  0  0  0  0  0  0
   -4.7696  -23.0132   19.4164 N   0  0  0  0  0  0  0  0  0  0  0  0
   -4.8081  -23.6853   18.2896 C   0  0  0  0  0  0  0  0  0  0  0  0
   -4.1731  -22.8777   16.9120 S   0  0  0  0  0  0  0  0  0  0  0  0
   -3.7482  -21.4953   17.8853 C   0  0  0  0  0  0  0  0  0  0  0  0
   -3.0276  -20.2715   17.5291 C   0  0  0  0  0  0  0  0  0  0  0  0
    0.4086  -19.4385   17.7589 H   0  0  0  0  0  0  0  0  0  0  0  0
    1.0993  -17.1728   18.7774 H   0  0  0  0  0  0  0  0  0  0  0  0
    1.8825  -17.5919   16.8971 H   0  0  0  0  0  0  0  0  0  0  0  0
    2.9102  -15.4252   17.0290 H   0  0  0  0  0  0  0  0  0  0  0  0
    1.7294  -14.6134   17.9403 H   0  0  0  0  0  0  0  0  0  0  0  0
    4.0780  -13.1927   20.6821 H   0  0  0  0  0  0  0  0  0  0  0  0
    6.3078  -12.1271   20.6419 H   0  0  0  0  0  0  0  0  0  0  0  0
    7.5015   -9.8823   15.3413 H   0  0  0  0  0  0  0  0  0  0  0  0
    9.7492  -10.4066   14.5120 H   0  0  0  0  0  0  0  0  0  0  0  0
    9.5915  -11.5633   18.6787 H   0  0  0  0  0  0  0  0  0  0  0  0
   -2.9507  -18.9148   20.6180 H   0  0  0  0  0  0  0  0  0  0  0  0
   -4.3163  -20.9034   21.1657 H   0  0  0  0  0  0  0  0  0  0  0  0
   -5.2268  -24.6811   18.2200 H   0  0  0  0  0  0  0  0  0  0  0  0
   -2.7082  -20.1339   16.4996 H   0  0  0  0  0  0  0  0  0  0  0  0
  1  2  2  0
  2  3  1  0
  3  4  1  0
  4  5  1  0
  5  6  1  0
  6  7  2  0
  7  8  1  0
  8  9  2  0
  9 10  1  0
 10 11  1  0
 11 12  2  0
 12 13  1  0
 13 14  1  0
  9 15  1  0
  2 16  1  0
 16 17  2  0
 17 18  1  0
 18 19  2  0
 19 20  1  0
 20 21  2  0
 21 22  1  0
 22 23  1  0
 23 24  2  0
 15  6  1  0
 24 16  1  0
 14 10  2  0
 23 19  1  0
  3 25  1  0
  4 26  1  0
  4 27  1  0
  5 28  1  0
  5 29  1  0
  7 30  1  0
  8 31  1  0
 11 32  1  0
 12 33  1  0
 14 34  1  0
 17 35  1  0
 18 36  1  0
 21 37  1  0
 24 38  1  0
M  END
>  <Energy>  (945) 
727.64283587231716

>  <compound_id>  (945) 
12315

>  <target_id>  (945) 
1

>  <reference_id>  (945) 
20

>  <inspiration_ids>  (945) 
[68, 20]

>  <energy_score>  (945) 
617.6827586757495

>  <distance_score>  (945) 
14.819069403764347

>  <path>  (945) 
/opt/xchem-fragalysis-2/maxwin/BulkDock/SCRATCH/511015/C12315-P20/C12315-P20.minimised.mol

>  <scratch_subdir>  (945) 
/opt/xchem-fragalysis-2/maxwin/BulkDock/SCRATCH/511015/C12315-P20

>  <fragmenstein_runtime>  (945) 
11.493225574493408

>  <fragmenstein_outcome>  (945) 
too moved

>  <fragmenstein_mode>  (945) 
expansion

>  <fragmenstein_error>  (945) 


$$$$
C12319-P68
     RDKit          3D

 29 31  0  0  0  0  0  0  0  0999 V2000
   -4.9580  -17.8284   21.5846 Cl  0  0  0  0  0  0  0  0  0  0  0  0
   -3.8421  -18.3227   22.8011 C   0  0  0  0  0  0  0  0  0  0  0  0
   -4.1932  -19.3738   23.6587 C   0  0  0  0  0  0  0  0  0  0  0  0
   -3.3160  -19.7821   24.6562 C   0  0  0  0  0  0  0  0  0  0  0  0
   -2.0584  -19.1743   24.7783 C   0  0  0  0  0  0  0  0  0  0  0  0
   -1.7042  -18.0689   23.9562 C   0  0  0  0  0  0  0  0  0  0  0  0
   -0.5200  -17.2975   24.0197 N   0  0  0  0  0  0  0  0  0  0  0  0
   -0.4491  -16.3356   23.0998 C   0  0  0  0  0  0  0  0  0  0  0  0
    0.7393  -15.5891   22.9117 N   0  0  0  0  0  0  0  0  0  0  0  0
    1.0598  -14.3958   21.9957 C   0  0  0  0  0  0  0  0  0  0  0  0
    2.5955  -13.9381   22.0342 C   0  0  0  0  0  0  0  0  0  0  0  0
    3.0984  -12.7490   21.1761 C   0  0  0  0  0  0  0  0  0  0  0  0
    3.7462  -11.5612   21.7056 C   0  0  0  0  0  0  0  0  0  0  0  0
    4.2232  -10.6989   20.7369 C   0  0  0  0  0  0  0  0  0  0  0  0
    3.9148  -11.2882   19.1670 S   0  0  0  0  0  0  0  0  0  0  0  0
    3.1456  -12.6969   19.7905 C   0  0  0  0  0  0  0  0  0  0  0  0
   -1.9616  -16.1865   22.2598 S   0  0  0  0  0  0  0  0  0  0  0  0
   -2.6161  -17.6410   22.9958 C   0  0  0  0  0  0  0  0  0  0  0  0
   -5.1656  -19.8492   23.5608 H   0  0  0  0  0  0  0  0  0  0  0  0
   -3.5973  -20.5690   25.3494 H   0  0  0  0  0  0  0  0  0  0  0  0
   -1.3619  -19.5068   25.5422 H   0  0  0  0  0  0  0  0  0  0  0  0
    1.3340  -15.6088   23.7371 H   0  0  0  0  0  0  0  0  0  0  0  0
    0.4306  -13.5536   22.3028 H   0  0  0  0  0  0  0  0  0  0  0  0
    0.7941  -14.6716   20.9696 H   0  0  0  0  0  0  0  0  0  0  0  0
    2.8401  -13.7220   23.0829 H   0  0  0  0  0  0  0  0  0  0  0  0
    3.2028  -14.8118   21.7609 H   0  0  0  0  0  0  0  0  0  0  0  0
    3.8704  -11.3676   22.7650 H   0  0  0  0  0  0  0  0  0  0  0  0
    4.7414   -9.7609   20.8814 H   0  0  0  0  0  0  0  0  0  0  0  0
    2.7823  -13.4387   19.0915 H   0  0  0  0  0  0  0  0  0  0  0  0
  1  2  1  0
  2  3  2  0
  3  4  1  0
  4  5  2  0
  5  6  1  0
  6  7  1  0
  7  8  2  0
  8  9  1  0
  9 10  1  0
 10 11  1  0
 11 12  1  0
 12 13  1  0
 13 14  2  0
 14 15  1  0
 15 16  1  0
  8 17  1  0
 17 18  1  0
 18  2  1  0
 18  6  2  0
 16 12  2  0
  3 19  1  0
  4 20  1  0
  5 21  1  0
  9 22  1  0
 10 23  1  0
 10 24  1  0
 11 25  1  0
 11 26  1  0
 13 27  1  0
 14 28  1  0
 16 29  1  0
M  END
>  <Energy>  (946) 
19.182232766471447

>  <compound_id>  (946) 
12319

>  <target_id>  (946) 
1

>  <reference_id>  (946) 
68

>  <inspiration_ids>  (946) 
[68, 20]

>  <energy_score>  (946) 
-52.95000485751436

>  <distance_score>  (946) 
17.387777738393975

>  <path>  (946) 
/opt/xchem-fragalysis-2/maxwin/BulkDock/SCRATCH/511015/C12319-P68/C12319-P68.minimised.mol

>  <scratch_subdir>  (946) 
/opt/xchem-fragalysis-2/maxwin/BulkDock/SCRATCH/511015/C12319-P68

>  <fragmenstein_runtime>  (946) 
10.077351093292236

>  <fragmenstein_outcome>  (946) 
too moved

>  <fragmenstein_mode>  (946) 
expansion

>  <fragmenstein_error>  (946) 


$$$$
C12319-P20
     RDKit          3D

 29 31  0  0  0  0  0  0  0  0999 V2000
   -0.4273  -27.1776   22.3840 Cl  0  0  0  0  0  0  0  0  0  0  0  0
    0.5149  -26.6309   21.0476 C   0  0  0  0  0  0  0  0  0  0  0  0
    1.2795  -27.6442   20.4515 C   0  0  0  0  0  0  0  0  0  0  0  0
    2.1288  -27.3508   19.3964 C   0  0  0  0  0  0  0  0  0  0  0  0
    2.1439  -26.0571   18.8428 C   0  0  0  0  0  0  0  0  0  0  0  0
    1.3447  -25.0250   19.3920 C   0  0  0  0  0  0  0  0  0  0  0  0
    1.1066  -23.6682   18.9883 N   0  0  0  0  0  0  0  0  0  0  0  0
    1.2172  -22.6437   20.0340 C   0  0  0  0  0  0  0  0  0  0  0  0
    2.0704  -21.0600   19.9603 N   0  0  0  0  0  0  0  0  0  0  0  0
    2.3730  -19.4934   20.8599 C   0  0  0  0  0  0  0  0  0  0  0  0
    3.8130  -18.5634   21.6423 C   0  0  0  0  0  0  0  0  0  0  0  0
    4.1274  -16.9567   21.4729 C   0  0  0  0  0  0  0  0  0  0  0  0
    5.4813  -16.4552   21.2060 C   0  0  0  0  0  0  0  0  0  0  0  0
    5.5610  -15.0926   20.9973 C   0  0  0  0  0  0  0  0  0  0  0  0
    4.0335  -14.3545   21.1457 S   0  0  0  0  0  0  0  0  0  0  0  0
    3.2700  -15.8646   21.5003 C   0  0  0  0  0  0  0  0  0  0  0  0
    0.4473  -23.5952   21.1048 S   0  0  0  0  0  0  0  0  0  0  0  0
    0.6725  -25.2966   20.5425 C   0  0  0  0  0  0  0  0  0  0  0  0
    1.2351  -28.6648   20.8262 H   0  0  0  0  0  0  0  0  0  0  0  0
    2.7314  -28.1329   18.9416 H   0  0  0  0  0  0  0  0  0  0  0  0
    2.7451  -25.8479   17.9628 H   0  0  0  0  0  0  0  0  0  0  0  0
    2.4390  -20.9861   19.0084 H   0  0  0  0  0  0  0  0  0  0  0  0
    1.9164  -19.8837   21.7307 H   0  0  0  0  0  0  0  0  0  0  0  0
    1.7576  -18.7036   20.4424 H   0  0  0  0  0  0  0  0  0  0  0  0
    4.7917  -19.0147   21.4408 H   0  0  0  0  0  0  0  0  0  0  0  0
    3.7407  -18.6992   22.7286 H   0  0  0  0  0  0  0  0  0  0  0  0
    6.3440  -17.1072   21.1321 H   0  0  0  0  0  0  0  0  0  0  0  0
    6.4399  -14.5080   20.7634 H   0  0  0  0  0  0  0  0  0  0  0  0
    2.2013  -15.8536   21.6512 H   0  0  0  0  0  0  0  0  0  0  0  0
  1  2  1  0
  2  3  2  0
  3  4  1  0
  4  5  2  0
  5  6  1  0
  6  7  1  0
  7  8  2  0
  8  9  1  0
  9 10  1  0
 10 11  1  0
 11 12  1  0
 12 13  1  0
 13 14  2  0
 14 15  1  0
 15 16  1  0
  8 17  1  0
 17 18  1  0
 18  2  1  0
 18  6  2  0
 16 12  2  0
  3 19  1  0
  4 20  1  0
  5 21  1  0
  9 22  1  0
 10 23  1  0
 10 24  1  0
 11 25  1  0
 11 26  1  0
 13 27  1  0
 14 28  1  0
 16 29  1  0
M  END
>  <Energy>  (947) 
271.73858344808554

>  <compound_id>  (947) 
12319

>  <target_id>  (947) 
1

>  <reference_id>  (947) 
20

>  <inspiration_ids>  (947) 
[68, 20]

>  <energy_score>  (947) 
199.6063458241013

>  <distance_score>  (947) 
16.4556142206601

>  <path>  (947) 
/opt/xchem-fragalysis-2/maxwin/BulkDock/SCRATCH/511015/C12319-P20/C12319-P20.minimised.mol

>  <scratch_subdir>  (947) 
/opt/xchem-fragalysis-2/maxwin/BulkDock/SCRATCH/511015/C12319-P20

>  <fragmenstein_runtime>  (947) 
5.7695536613464355

>  <fragmenstein_outcome>  (947) 
too moved

>  <fragmenstein_mode>  (947) 
expansion

>  <fragmenstein_error>  (947) 


$$$$
C12320-P68
     RDKit          3D

 34 36  0  0  0  0  0  0  0  0999 V2000
    3.5607  -23.4881   16.6701 C   0  0  0  0  0  0  0  0  0  0  0  0
    3.0706  -22.0281   16.7859 N   0  0  0  0  0  0  0  0  0  0  0  0
    2.9639  -20.9864   15.7873 C   0  0  0  0  0  0  0  0  0  0  0  0
    3.1480  -21.0242   14.5898 O   0  0  0  0  0  0  0  0  0  0  0  0
    2.6702  -19.5113   16.3314 C   0  0  0  0  0  0  0  0  0  0  0  0
    3.8308  -18.5219   15.7527 C   0  0  0  0  0  0  0  0  0  0  0  0
    4.0457  -17.0307   16.1209 C   0  0  0  0  0  0  0  0  0  0  0  0
    5.2665  -16.3089   15.7592 C   0  0  0  0  0  0  0  0  0  0  0  0
    5.2690  -14.9761   16.1169 C   0  0  0  0  0  0  0  0  0  0  0  0
    3.8160  -14.5479   16.8993 S   0  0  0  0  0  0  0  0  0  0  0  0
    3.1823  -16.1449   16.7382 C   0  0  0  0  0  0  0  0  0  0  0  0
    1.6835  -22.7708   16.9765 C   0  0  0  0  0  0  0  0  0  0  0  0
    0.9849  -23.5063   16.1095 N   0  0  0  0  0  0  0  0  0  0  0  0
    0.4619  -24.6766   16.7347 C   0  0  0  0  0  0  0  0  0  0  0  0
   -0.1006  -25.8081   16.0819 C   0  0  0  0  0  0  0  0  0  0  0  0
   -0.3311  -27.0083   16.7736 C   0  0  0  0  0  0  0  0  0  0  0  0
   -0.0336  -27.0902   18.1258 C   0  0  0  0  0  0  0  0  0  0  0  0
    0.4204  -25.9572   18.8204 C   0  0  0  0  0  0  0  0  0  0  0  0
    0.7992  -26.1470   20.4858 Cl  0  0  0  0  0  0  0  0  0  0  0  0
    0.6511  -24.7471   18.1167 C   0  0  0  0  0  0  0  0  0  0  0  0
    1.1973  -23.1580   18.6174 S   0  0  0  0  0  0  0  0  0  0  0  0
    4.6416  -23.3508   16.5144 H   0  0  0  0  0  0  0  0  0  0  0  0
    3.5148  -24.0863   17.5867 H   0  0  0  0  0  0  0  0  0  0  0  0
    3.2570  -23.9892   15.7401 H   0  0  0  0  0  0  0  0  0  0  0  0
    2.6648  -19.5099   17.4196 H   0  0  0  0  0  0  0  0  0  0  0  0
    1.6891  -19.1885   15.9700 H   0  0  0  0  0  0  0  0  0  0  0  0
    4.7877  -19.0290   15.9398 H   0  0  0  0  0  0  0  0  0  0  0  0
    3.7116  -18.5275   14.6593 H   0  0  0  0  0  0  0  0  0  0  0  0
    6.0952  -16.7731   15.2364 H   0  0  0  0  0  0  0  0  0  0  0  0
    6.0466  -14.2435   15.9494 H   0  0  0  0  0  0  0  0  0  0  0  0
    2.1840  -16.3474   17.1016 H   0  0  0  0  0  0  0  0  0  0  0  0
   -0.2666  -25.7594   15.0085 H   0  0  0  0  0  0  0  0  0  0  0  0
   -0.7104  -27.8770   16.2409 H   0  0  0  0  0  0  0  0  0  0  0  0
   -0.1779  -28.0312   18.6528 H   0  0  0  0  0  0  0  0  0  0  0  0
  1  2  1  0
  2  3  1  0
  3  4  2  0
  3  5  1  0
  5  6  1  0
  6  7  1  0
  7  8  1  0
  8  9  2  0
  9 10  1  0
 10 11  1  0
  2 12  1  0
 12 13  2  0
 13 14  1  0
 14 15  2  0
 15 16  1  0
 16 17  2  0
 17 18  1  0
 18 19  1  0
 18 20  2  0
 20 21  1  0
 11  7  2  0
 21 12  1  0
 20 14  1  0
  1 22  1  0
  1 23  1  0
  1 24  1  0
  5 25  1  0
  5 26  1  0
  6 27  1  0
  6 28  1  0
  8 29  1  0
  9 30  1  0
 11 31  1  0
 15 32  1  0
 16 33  1  0
 17 34  1  0
M  END
>  <Energy>  (948) 
110.52149089723666

>  <compound_id>  (948) 
12320

>  <target_id>  (948) 
1

>  <reference_id>  (948) 
68

>  <inspiration_ids>  (948) 
[68, 20]

>  <energy_score>  (948) 
36.83989053610463

>  <distance_score>  (948) 
16.393154839489625

>  <path>  (948) 
/opt/xchem-fragalysis-2/maxwin/BulkDock/SCRATCH/511015/C12320-P68/C12320-P68.minimised.mol

>  <scratch_subdir>  (948) 
/opt/xchem-fragalysis-2/maxwin/BulkDock/SCRATCH/511015/C12320-P68

>  <fragmenstein_runtime>  (948) 
20.70314359664917

>  <fragmenstein_outcome>  (948) 
too moved

>  <fragmenstein_mode>  (948) 
expansion

>  <fragmenstein_error>  (948) 


$$$$
C12320-P20
     RDKit          3D

 34 36  0  0  0  0  0  0  0  0999 V2000
    8.8210  -21.9390   16.5897 C   0  0  0  0  0  0  0  0  0  0  0  0
    8.4384  -20.6219   15.8842 N   0  0  0  0  0  0  0  0  0  0  0  0
    8.2087  -19.3022   16.4182 C   0  0  0  0  0  0  0  0  0  0  0  0
    8.1703  -18.9162   17.5641 O   0  0  0  0  0  0  0  0  0  0  0  0
    8.0949  -18.1155   15.3610 C   0  0  0  0  0  0  0  0  0  0  0  0
    8.7253  -16.7846   16.0200 C   0  0  0  0  0  0  0  0  0  0  0  0
    8.8367  -15.4355   15.2942 C   0  0  0  0  0  0  0  0  0  0  0  0
   10.0254  -14.5984   15.3306 C   0  0  0  0  0  0  0  0  0  0  0  0
    9.8532  -13.3521   14.7620 C   0  0  0  0  0  0  0  0  0  0  0  0
    8.2667  -13.1518   14.1693 S   0  0  0  0  0  0  0  0  0  0  0  0
    7.8153  -14.7337   14.6773 C   0  0  0  0  0  0  0  0  0  0  0  0
    7.0598  -21.4037   15.7034 C   0  0  0  0  0  0  0  0  0  0  0  0
    5.8571  -21.0476   16.1142 N   0  0  0  0  0  0  0  0  0  0  0  0
    4.9095  -22.0928   15.9753 C   0  0  0  0  0  0  0  0  0  0  0  0
    3.5568  -22.0460   16.3498 C   0  0  0  0  0  0  0  0  0  0  0  0
    2.7540  -23.1819   16.2216 C   0  0  0  0  0  0  0  0  0  0  0  0
    3.2764  -24.3929   15.7893 C   0  0  0  0  0  0  0  0  0  0  0  0
    4.5955  -24.4471   15.3530 C   0  0  0  0  0  0  0  0  0  0  0  0
    5.2222  -25.9200   14.7176 Cl  0  0  0  0  0  0  0  0  0  0  0  0
    5.3841  -23.2756   15.4123 C   0  0  0  0  0  0  0  0  0  0  0  0
    6.9643  -22.9335   14.7892 S   0  0  0  0  0  0  0  0  0  0  0  0
    9.7028  -21.6301   17.1734 H   0  0  0  0  0  0  0  0  0  0  0  0
    8.1485  -22.2916   17.3891 H   0  0  0  0  0  0  0  0  0  0  0  0
    9.2398  -22.6855   15.9055 H   0  0  0  0  0  0  0  0  0  0  0  0
    8.6612  -18.3771   14.4620 H   0  0  0  0  0  0  0  0  0  0  0  0
    7.0479  -17.9531   15.0957 H   0  0  0  0  0  0  0  0  0  0  0  0
    9.7344  -17.0553   16.3620 H   0  0  0  0  0  0  0  0  0  0  0  0
    8.1506  -16.5711   16.9328 H   0  0  0  0  0  0  0  0  0  0  0  0
   10.9586  -14.9006   15.7924 H   0  0  0  0  0  0  0  0  0  0  0  0
   10.5789  -12.5542   14.6797 H   0  0  0  0  0  0  0  0  0  0  0  0
    6.7941  -15.0549   14.5249 H   0  0  0  0  0  0  0  0  0  0  0  0
    3.1405  -21.1336   16.7728 H   0  0  0  0  0  0  0  0  0  0  0  0
    1.7256  -23.0553   16.5144 H   0  0  0  0  0  0  0  0  0  0  0  0
    2.6738  -25.2914   15.7517 H   0  0  0  0  0  0  0  0  0  0  0  0
  1  2  1  0
  2  3  1  0
  3  4  2  0
  3  5  1  0
  5  6  1  0
  6  7  1  0
  7  8  1  0
  8  9  2  0
  9 10  1  0
 10 11  1  0
  2 12  1  0
 12 13  2  0
 13 14  1  0
 14 15  2  0
 15 16  1  0
 16 17  2  0
 17 18  1  0
 18 19  1  0
 18 20  2  0
 20 21  1  0
 11  7  2  0
 21 12  1  0
 20 14  1  0
  1 22  1  0
  1 23  1  0
  1 24  1  0
  5 25  1  0
  5 26  1  0
  6 27  1  0
  6 28  1  0
  8 29  1  0
  9 30  1  0
 11 31  1  0
 15 32  1  0
 16 33  1  0
 17 34  1  0
M  END
>  <Energy>  (949) 
96.532137653414054

>  <compound_id>  (949) 
12320

>  <target_id>  (949) 
1

>  <reference_id>  (949) 
20

>  <inspiration_ids>  (949) 
[68, 20]

>  <energy_score>  (949) 
22.850537292280023

>  <distance_score>  (949) 
17.6896351809188

>  <path>  (949) 
/opt/xchem-fragalysis-2/maxwin/BulkDock/SCRATCH/511015/C12320-P20/C12320-P20.minimised.mol

>  <scratch_subdir>  (949) 
/opt/xchem-fragalysis-2/maxwin/BulkDock/SCRATCH/511015/C12320-P20

>  <fragmenstein_runtime>  (949) 
9.297985315322876

>  <fragmenstein_outcome>  (949) 
too moved

>  <fragmenstein_mode>  (949) 
expansion

>  <fragmenstein_error>  (949) 


$$$$
C12321-P68
     RDKit          3D

 23 25  0  0  0  0  0  0  0  0999 V2000
   -3.6168  -27.8083   16.8891 Cl  0  0  0  0  0  0  0  0  0  0  0  0
   -2.6787  -27.8602   18.3339 C   0  0  0  0  0  0  0  0  0  0  0  0
   -2.9092  -28.8939   19.2543 C   0  0  0  0  0  0  0  0  0  0  0  0
   -2.1568  -28.9750   20.4194 C   0  0  0  0  0  0  0  0  0  0  0  0
   -1.1922  -27.9990   20.6978 C   0  0  0  0  0  0  0  0  0  0  0  0
   -0.9333  -26.9503   19.7763 C   0  0  0  0  0  0  0  0  0  0  0  0
    0.0146  -25.9273   19.9211 N   0  0  0  0  0  0  0  0  0  0  0  0
    0.0668  -25.1026   18.8772 C   0  0  0  0  0  0  0  0  0  0  0  0
    0.8949  -23.9785   18.8749 N   0  0  0  0  0  0  0  0  0  0  0  0
    1.3891  -23.0287   17.9792 C   0  0  0  0  0  0  0  0  0  0  0  0
    1.8918  -21.7405   18.4170 C   0  0  0  0  0  0  0  0  0  0  0  0
    2.4262  -20.9714   17.4009 C   0  0  0  0  0  0  0  0  0  0  0  0
    2.4881  -21.8357   15.9355 S   0  0  0  0  0  0  0  0  0  0  0  0
    1.5902  -23.1468   16.6197 C   0  0  0  0  0  0  0  0  0  0  0  0
   -1.0790  -25.5557   17.6560 S   0  0  0  0  0  0  0  0  0  0  0  0
   -1.6693  -26.9030   18.5946 C   0  0  0  0  0  0  0  0  0  0  0  0
   -3.6587  -29.6534   19.0450 H   0  0  0  0  0  0  0  0  0  0  0  0
   -2.2945  -29.8049   21.1081 H   0  0  0  0  0  0  0  0  0  0  0  0
   -0.6049  -28.0518   21.6102 H   0  0  0  0  0  0  0  0  0  0  0  0
    1.3940  -23.9290   19.7678 H   0  0  0  0  0  0  0  0  0  0  0  0
    1.8513  -21.4086   19.4467 H   0  0  0  0  0  0  0  0  0  0  0  0
    2.8290  -19.9739   17.4479 H   0  0  0  0  0  0  0  0  0  0  0  0
    1.3404  -23.9847   15.9861 H   0  0  0  0  0  0  0  0  0  0  0  0
  1  2  1  0
  2  3  2  0
  3  4  1  0
  4  5  2  0
  5  6  1  0
  6  7  1  0
  7  8  2  0
  8  9  1  0
  9 10  1  0
 10 11  1  0
 11 12  2  0
 12 13  1  0
 13 14  1  0
  8 15  1  0
 15 16  1  0
 16  2  1  0
 16  6  2  0
 14 10  2  0
  3 17  1  0
  4 18  1  0
  5 19  1  0
  9 20  1  0
 11 21  1  0
 12 22  1  0
 14 23  1  0
M  END
>  <Energy>  (950) 
1.6472368034221294

>  <compound_id>  (950) 
12321

>  <target_id>  (950) 
1

>  <reference_id>  (950) 
68

>  <inspiration_ids>  (950) 
[68, 20]

>  <energy_score>  (950) 
-56.43576694514144

>  <distance_score>  (950) 
16.80225720683098

>  <path>  (950) 
/opt/xchem-fragalysis-2/maxwin/BulkDock/SCRATCH/511015/C12321-P68/C12321-P68.minimised.mol

>  <scratch_subdir>  (950) 
/opt/xchem-fragalysis-2/maxwin/BulkDock/SCRATCH/511015/C12321-P68

>  <fragmenstein_runtime>  (950) 
5.027636289596558

>  <fragmenstein_outcome>  (950) 
too moved

>  <fragmenstein_mode>  (950) 
expansion

>  <fragmenstein_error>  (950) 


$$$$
C12321-P20
     RDKit          3D

 23 25  0  0  0  0  0  0  0  0999 V2000
   -0.2271  -30.5607   19.8369 Cl  0  0  0  0  0  0  0  0  0  0  0  0
   -1.5677  -29.5180   19.5374 C   0  0  0  0  0  0  0  0  0  0  0  0
   -2.8531  -29.9321   19.9325 C   0  0  0  0  0  0  0  0  0  0  0  0
   -3.9545  -29.1181   19.7087 C   0  0  0  0  0  0  0  0  0  0  0  0
   -3.7772  -27.8782   19.0803 C   0  0  0  0  0  0  0  0  0  0  0  0
   -2.4878  -27.4398   18.6693 C   0  0  0  0  0  0  0  0  0  0  0  0
   -2.1804  -26.2359   18.0232 N   0  0  0  0  0  0  0  0  0  0  0  0
   -0.8842  -26.0774   17.7688 C   0  0  0  0  0  0  0  0  0  0  0  0
   -0.4496  -24.9274   17.1057 N   0  0  0  0  0  0  0  0  0  0  0  0
    0.7209  -24.2730   16.7094 C   0  0  0  0  0  0  0  0  0  0  0  0
    2.0911  -24.5976   16.9547 C   0  0  0  0  0  0  0  0  0  0  0  0
    2.9923  -23.7049   16.3844 C   0  0  0  0  0  0  0  0  0  0  0  0
    2.2141  -22.4170   15.5830 S   0  0  0  0  0  0  0  0  0  0  0  0
    0.6788  -23.1161   15.9316 C   0  0  0  0  0  0  0  0  0  0  0  0
    0.0341  -27.4401   18.3084 S   0  0  0  0  0  0  0  0  0  0  0  0
   -1.3916  -28.2632   18.9072 C   0  0  0  0  0  0  0  0  0  0  0  0
   -2.9904  -30.8960   20.4184 H   0  0  0  0  0  0  0  0  0  0  0  0
   -4.9493  -29.4399   20.0116 H   0  0  0  0  0  0  0  0  0  0  0  0
   -4.6331  -27.2345   18.8956 H   0  0  0  0  0  0  0  0  0  0  0  0
   -1.2912  -24.4158   16.8471 H   0  0  0  0  0  0  0  0  0  0  0  0
    2.4183  -25.4517   17.5321 H   0  0  0  0  0  0  0  0  0  0  0  0
    4.0694  -23.7449   16.4329 H   0  0  0  0  0  0  0  0  0  0  0  0
   -0.2010  -22.6302   15.5375 H   0  0  0  0  0  0  0  0  0  0  0  0
  1  2  1  0
  2  3  2  0
  3  4  1  0
  4  5  2  0
  5  6  1  0
  6  7  1  0
  7  8  2  0
  8  9  1  0
  9 10  1  0
 10 11  1  0
 11 12  2  0
 12 13  1  0
 13 14  1  0
  8 15  1  0
 15 16  1  0
 16  2  1  0
 16  6  2  0
 14 10  2  0
  3 17  1  0
  4 18  1  0
  5 19  1  0
  9 20  1  0
 11 21  1  0
 12 22  1  0
 14 23  1  0
M  END
>  <Energy>  (951) 
0.59700151982400662

>  <compound_id>  (951) 
12321

>  <target_id>  (951) 
1

>  <reference_id>  (951) 
20

>  <inspiration_ids>  (951) 
[68, 20]

>  <energy_score>  (951) 
-57.48600222874069

>  <distance_score>  (951) 
17.294667353909805

>  <path>  (951) 
/opt/xchem-fragalysis-2/maxwin/BulkDock/SCRATCH/511015/C12321-P20/C12321-P20.minimised.mol

>  <scratch_subdir>  (951) 
/opt/xchem-fragalysis-2/maxwin/BulkDock/SCRATCH/511015/C12321-P20

>  <fragmenstein_runtime>  (951) 
3.4482486248016357

>  <fragmenstein_outcome>  (951) 
too moved

>  <fragmenstein_mode>  (951) 
expansion

>  <fragmenstein_error>  (951) 


$$$$
C12323-P68
     RDKit          3D

 36 38  0  0  0  0  0  0  0  0999 V2000
    5.0128  -18.0716   13.3364 C   0  0  0  0  0  0  0  0  0  0  0  0
    4.1488  -18.6165   14.5029 N   0  0  0  0  0  0  0  0  0  0  0  0
    4.3766  -19.7223   15.4128 C   0  0  0  0  0  0  0  0  0  0  0  0
    5.3400  -20.4419   15.5474 O   0  0  0  0  0  0  0  0  0  0  0  0
    3.0953  -20.0523   16.2543 C   0  0  0  0  0  0  0  0  0  0  0  0
    3.0733  -21.5722   16.6519 C   0  0  0  0  0  0  0  0  0  0  0  0
    1.8321  -22.1012   17.2878 N   0  0  0  0  0  0  0  0  0  0  0  0
    1.7746  -23.3798   17.8347 C   0  0  0  0  0  0  0  0  0  0  0  0
    0.7870  -23.8459   18.5984 N   0  0  0  0  0  0  0  0  0  0  0  0
    1.1612  -25.0635   19.2109 C   0  0  0  0  0  0  0  0  0  0  0  0
    0.4627  -25.8630   20.1559 C   0  0  0  0  0  0  0  0  0  0  0  0
    1.0694  -26.9363   20.7916 C   0  0  0  0  0  0  0  0  0  0  0  0
    2.3757  -27.2508   20.4672 C   0  0  0  0  0  0  0  0  0  0  0  0
    3.0586  -26.6044   19.4512 C   0  0  0  0  0  0  0  0  0  0  0  0
    2.4204  -25.5207   18.8241 C   0  0  0  0  0  0  0  0  0  0  0  0
    3.0054  -24.5649   17.5213 S   0  0  0  0  0  0  0  0  0  0  0  0
    4.6026  -17.2668   15.1488 C   0  0  0  0  0  0  0  0  0  0  0  0
    3.9649  -15.9756   14.9210 C   0  0  0  0  0  0  0  0  0  0  0  0
    4.6601  -14.9055   15.4527 C   0  0  0  0  0  0  0  0  0  0  0  0
    6.0635  -15.4139   16.2796 S   0  0  0  0  0  0  0  0  0  0  0  0
    5.7380  -17.0704   15.9314 C   0  0  0  0  0  0  0  0  0  0  0  0
    4.9565  -18.8877   12.6011 H   0  0  0  0  0  0  0  0  0  0  0  0
    4.5778  -17.2093   12.8144 H   0  0  0  0  0  0  0  0  0  0  0  0
    6.0889  -18.0132   13.5546 H   0  0  0  0  0  0  0  0  0  0  0  0
    3.0365  -19.4044   17.1275 H   0  0  0  0  0  0  0  0  0  0  0  0
    2.2321  -19.8480   15.6192 H   0  0  0  0  0  0  0  0  0  0  0  0
    3.9208  -21.7622   17.3136 H   0  0  0  0  0  0  0  0  0  0  0  0
    3.2485  -22.1525   15.7367 H   0  0  0  0  0  0  0  0  0  0  0  0
    1.3076  -21.4126   17.8109 H   0  0  0  0  0  0  0  0  0  0  0  0
   -0.5565  -25.6658   20.4250 H   0  0  0  0  0  0  0  0  0  0  0  0
    0.5352  -27.4984   21.5507 H   0  0  0  0  0  0  0  0  0  0  0  0
    2.9134  -28.0170   20.9996 H   0  0  0  0  0  0  0  0  0  0  0  0
    4.0624  -26.8990   19.1703 H   0  0  0  0  0  0  0  0  0  0  0  0
    3.0545  -15.8610   14.3438 H   0  0  0  0  0  0  0  0  0  0  0  0
    4.4081  -13.8554   15.3903 H   0  0  0  0  0  0  0  0  0  0  0  0
    6.4514  -17.8201   16.2448 H   0  0  0  0  0  0  0  0  0  0  0  0
  1  2  1  0
  2  3  1  0
  3  4  2  0
  3  5  1  0
  5  6  1  0
  6  7  1  0
  7  8  1  0
  8  9  2  0
  9 10  1  0
 10 11  2  0
 11 12  1  0
 12 13  2  0
 13 14  1  0
 14 15  2  0
 15 16  1  0
  2 17  1  0
 17 18  1  0
 18 19  2  0
 19 20  1  0
 20 21  1  0
 16  8  1  0
 21 17  2  0
 15 10  1  0
  1 22  1  0
  1 23  1  0
  1 24  1  0
  5 25  1  0
  5 26  1  0
  6 27  1  0
  6 28  1  0
  7 29  1  0
 11 30  1  0
 12 31  1  0
 13 32  1  0
 14 33  1  0
 18 34  1  0
 19 35  1  0
 21 36  1  0
M  END
>  <Energy>  (952) 
76.197181944806687

>  <compound_id>  (952) 
12323

>  <target_id>  (952) 
1

>  <reference_id>  (952) 
68

>  <inspiration_ids>  (952) 
[68, 20]

>  <energy_score>  (952) 
-26.699278371041686

>  <distance_score>  (952) 
16.290717042526918

>  <path>  (952) 
/opt/xchem-fragalysis-2/maxwin/BulkDock/SCRATCH/511015/C12323-P68/C12323-P68.minimised.mol

>  <scratch_subdir>  (952) 
/opt/xchem-fragalysis-2/maxwin/BulkDock/SCRATCH/511015/C12323-P68

>  <fragmenstein_runtime>  (952) 
22.288373947143555

>  <fragmenstein_outcome>  (952) 
too moved

>  <fragmenstein_mode>  (952) 
expansion

>  <fragmenstein_error>  (952) 


$$$$
C12323-P20
     RDKit          3D

 36 38  0  0  0  0  0  0  0  0999 V2000
    4.2364  -15.5683   24.7799 C   0  0  0  0  0  0  0  0  0  0  0  0
    4.0216  -16.6455   23.6881 N   0  0  0  0  0  0  0  0  0  0  0  0
    4.2548  -18.0732   23.7109 C   0  0  0  0  0  0  0  0  0  0  0  0
    4.7625  -18.7709   24.5646 O   0  0  0  0  0  0  0  0  0  0  0  0
    3.6139  -19.0960   22.3565 C   0  0  0  0  0  0  0  0  0  0  0  0
    2.1896  -19.8374   21.2912 C   0  0  0  0  0  0  0  0  0  0  0  0
    1.8206  -21.2885   20.1120 N   0  0  0  0  0  0  0  0  0  0  0  0
    0.9992  -22.8759   20.3523 C   0  0  0  0  0  0  0  0  0  0  0  0
    0.6526  -23.5758   21.4602 N   0  0  0  0  0  0  0  0  0  0  0  0
    0.9202  -25.2289   21.2772 C   0  0  0  0  0  0  0  0  0  0  0  0
    1.6702  -26.2111   21.9483 C   0  0  0  0  0  0  0  0  0  0  0  0
    1.4014  -27.5580   21.6335 C   0  0  0  0  0  0  0  0  0  0  0  0
    0.1954  -27.8804   21.0574 C   0  0  0  0  0  0  0  0  0  0  0  0
   -0.5373  -26.8609   20.4610 C   0  0  0  0  0  0  0  0  0  0  0  0
    0.1394  -25.6320   20.2818 C   0  0  0  0  0  0  0  0  0  0  0  0
    0.7200  -24.3812   19.1764 S   0  0  0  0  0  0  0  0  0  0  0  0
    5.2667  -15.8758   23.0361 C   0  0  0  0  0  0  0  0  0  0  0  0
    6.5820  -16.3838   22.7360 C   0  0  0  0  0  0  0  0  0  0  0  0
    7.3994  -15.4721   22.0844 C   0  0  0  0  0  0  0  0  0  0  0  0
    6.6016  -14.0039   21.7466 S   0  0  0  0  0  0  0  0  0  0  0  0
    5.1631  -14.5895   22.4711 C   0  0  0  0  0  0  0  0  0  0  0  0
    5.2355  -15.5658   25.2427 H   0  0  0  0  0  0  0  0  0  0  0  0
    3.8144  -14.5911   24.5199 H   0  0  0  0  0  0  0  0  0  0  0  0
    3.5921  -15.9284   25.5955 H   0  0  0  0  0  0  0  0  0  0  0  0
    3.4731  -19.7975   23.1702 H   0  0  0  0  0  0  0  0  0  0  0  0
    4.4415  -19.0440   21.6853 H   0  0  0  0  0  0  0  0  0  0  0  0
    1.4444  -19.1042   21.1521 H   0  0  0  0  0  0  0  0  0  0  0  0
    1.6849  -20.2137   22.1530 H   0  0  0  0  0  0  0  0  0  0  0  0
    2.2114  -21.1699   19.1756 H   0  0  0  0  0  0  0  0  0  0  0  0
    2.4492  -25.9313   22.6507 H   0  0  0  0  0  0  0  0  0  0  0  0
    2.0576  -28.3445   21.9992 H   0  0  0  0  0  0  0  0  0  0  0  0
   -0.1316  -28.9137   20.9868 H   0  0  0  0  0  0  0  0  0  0  0  0
   -1.3819  -27.1943   19.8751 H   0  0  0  0  0  0  0  0  0  0  0  0
    6.9251  -17.3747   23.0099 H   0  0  0  0  0  0  0  0  0  0  0  0
    8.4273  -15.6163   21.7799 H   0  0  0  0  0  0  0  0  0  0  0  0
    4.2871  -13.9566   22.4352 H   0  0  0  0  0  0  0  0  0  0  0  0
  1  2  1  0
  2  3  1  0
  3  4  2  0
  3  5  1  0
  5  6  1  0
  6  7  1  0
  7  8  1  0
  8  9  2  0
  9 10  1  0
 10 11  2  0
 11 12  1  0
 12 13  2  0
 13 14  1  0
 14 15  2  0
 15 16  1  0
  2 17  1  0
 17 18  1  0
 18 19  2  0
 19 20  1  0
 20 21  1  0
 16  8  1  0
 21 17  2  0
 15 10  1  0
  1 22  1  0
  1 23  1  0
  1 24  1  0
  5 25  1  0
  5 26  1  0
  6 27  1  0
  6 28  1  0
  7 29  1  0
 11 30  1  0
 12 31  1  0
 13 32  1  0
 14 33  1  0
 18 34  1  0
 19 35  1  0
 21 36  1  0
M  END
>  <Energy>  (953) 
450.88728570589336

>  <compound_id>  (953) 
12323

>  <target_id>  (953) 
1

>  <reference_id>  (953) 
20

>  <inspiration_ids>  (953) 
[68, 20]

>  <energy_score>  (953) 
347.9908253900469

>  <distance_score>  (953) 
15.578427148839916

>  <path>  (953) 
/opt/xchem-fragalysis-2/maxwin/BulkDock/SCRATCH/511015/C12323-P20/C12323-P20.minimised.mol

>  <scratch_subdir>  (953) 
/opt/xchem-fragalysis-2/maxwin/BulkDock/SCRATCH/511015/C12323-P20

>  <fragmenstein_runtime>  (953) 
8.588812589645386

>  <fragmenstein_outcome>  (953) 
too moved

>  <fragmenstein_mode>  (953) 
expansion

>  <fragmenstein_error>  (953) 


$$$$
C12324-P68
     RDKit          3D

 30 32  0  0  0  0  0  0  0  0999 V2000
   -0.8298  -14.7866   16.8034 N   0  0  0  0  0  0  0  0  0  0  0  0
   -0.3225  -15.3891   17.6568 C   0  0  0  0  0  0  0  0  0  0  0  0
    0.4239  -16.1034   18.7086 C   0  0  0  0  0  0  0  0  0  0  0  0
    1.4334  -15.0023   19.3475 C   0  0  0  0  0  0  0  0  0  0  0  0
    1.3889  -14.7065   20.5429 O   0  0  0  0  0  0  0  0  0  0  0  0
    2.5665  -14.4275   18.3721 C   0  0  0  0  0  0  0  0  0  0  0  0
    3.2906  -13.0854   18.5973 C   0  0  0  0  0  0  0  0  0  0  0  0
    3.8631  -12.3116   17.5007 C   0  0  0  0  0  0  0  0  0  0  0  0
    4.5404  -11.1775   17.8984 C   0  0  0  0  0  0  0  0  0  0  0  0
    4.5166  -11.0075   19.5936 S   0  0  0  0  0  0  0  0  0  0  0  0
    3.6009  -12.4548   19.7895 C   0  0  0  0  0  0  0  0  0  0  0  0
   -0.6465  -16.9815   19.5501 C   0  0  0  0  0  0  0  0  0  0  0  0
   -1.7765  -17.4769   19.0318 N   0  0  0  0  0  0  0  0  0  0  0  0
   -2.5353  -18.2477   19.9419 C   0  0  0  0  0  0  0  0  0  0  0  0
   -3.8081  -18.8459   19.7190 C   0  0  0  0  0  0  0  0  0  0  0  0
   -4.4539  -19.5361   20.7475 C   0  0  0  0  0  0  0  0  0  0  0  0
   -6.0194  -20.1951   20.4882 Cl  0  0  0  0  0  0  0  0  0  0  0  0
   -3.8504  -19.6456   21.9894 C   0  0  0  0  0  0  0  0  0  0  0  0
   -2.5521  -19.1584   22.2068 C   0  0  0  0  0  0  0  0  0  0  0  0
   -1.9233  -18.4284   21.1749 C   0  0  0  0  0  0  0  0  0  0  0  0
   -0.4074  -17.5760   21.1497 S   0  0  0  0  0  0  0  0  0  0  0  0
    1.0783  -16.8536   18.2443 H   0  0  0  0  0  0  0  0  0  0  0  0
    2.1173  -14.3724   17.3735 H   0  0  0  0  0  0  0  0  0  0  0  0
    3.3374  -15.2078   18.3302 H   0  0  0  0  0  0  0  0  0  0  0  0
    3.7780  -12.5963   16.4576 H   0  0  0  0  0  0  0  0  0  0  0  0
    5.0446  -10.4528   17.2738 H   0  0  0  0  0  0  0  0  0  0  0  0
    3.3410  -12.7738   20.7909 H   0  0  0  0  0  0  0  0  0  0  0  0
   -4.2778  -18.7219   18.7480 H   0  0  0  0  0  0  0  0  0  0  0  0
   -4.3903  -20.0839   22.8195 H   0  0  0  0  0  0  0  0  0  0  0  0
   -2.0722  -19.2721   23.1746 H   0  0  0  0  0  0  0  0  0  0  0  0
  1  2  3  0
  2  3  1  0
  3  4  1  0
  4  5  2  0
  4  6  1  0
  6  7  1  0
  7  8  1  0
  8  9  2  0
  9 10  1  0
 10 11  1  0
  3 12  1  0
 12 13  2  0
 13 14  1  0
 14 15  2  0
 15 16  1  0
 16 17  1  0
 16 18  2  0
 18 19  1  0
 19 20  2  0
 20 21  1  0
 11  7  2  0
 21 12  1  0
 20 14  1  0
  3 22  1  0
  6 23  1  0
  6 24  1  0
  8 25  1  0
  9 26  1  0
 11 27  1  0
 15 28  1  0
 18 29  1  0
 19 30  1  0
M  END
>  <Energy>  (954) 
54.320585947823602

>  <compound_id>  (954) 
12324

>  <target_id>  (954) 
1

>  <reference_id>  (954) 
68

>  <inspiration_ids>  (954) 
[68, 20]

>  <energy_score>  (954) 
-39.38287519393515

>  <distance_score>  (954) 
17.12699646548831

>  <path>  (954) 
/opt/xchem-fragalysis-2/maxwin/BulkDock/SCRATCH/511015/C12324-P68/C12324-P68.minimised.mol

>  <scratch_subdir>  (954) 
/opt/xchem-fragalysis-2/maxwin/BulkDock/SCRATCH/511015/C12324-P68

>  <fragmenstein_runtime>  (954) 
7.8245179653167725

>  <fragmenstein_outcome>  (954) 
too moved

>  <fragmenstein_mode>  (954) 
expansion

>  <fragmenstein_error>  (954) 


$$$$
C12324-P20
     RDKit          3D

 30 32  0  0  0  0  0  0  0  0999 V2000
    3.2031  -20.7625   17.0013 N   0  0  0  0  0  0  0  0  0  0  0  0
    2.8807  -20.7882   18.1257 C   0  0  0  0  0  0  0  0  0  0  0  0
    2.2335  -20.9777   19.6562 C   0  0  0  0  0  0  0  0  0  0  0  0
    2.4906  -19.5420   20.7755 C   0  0  0  0  0  0  0  0  0  0  0  0
    1.7261  -19.8787   21.6595 O   0  0  0  0  0  0  0  0  0  0  0  0
    3.7327  -18.3538   21.4660 C   0  0  0  0  0  0  0  0  0  0  0  0
    3.8582  -16.7212   21.3476 C   0  0  0  0  0  0  0  0  0  0  0  0
    5.1667  -16.0726   21.1667 C   0  0  0  0  0  0  0  0  0  0  0  0
    5.1090  -14.7096   20.9613 C   0  0  0  0  0  0  0  0  0  0  0  0
    3.5020  -14.1475   21.0116 S   0  0  0  0  0  0  0  0  0  0  0  0
    2.8852  -15.7324   21.3232 C   0  0  0  0  0  0  0  0  0  0  0  0
    1.1751  -22.7094   20.1134 C   0  0  0  0  0  0  0  0  0  0  0  0
    0.6454  -23.4225   21.2028 N   0  0  0  0  0  0  0  0  0  0  0  0
    0.7849  -25.1030   21.1091 C   0  0  0  0  0  0  0  0  0  0  0  0
    1.4123  -26.1835   21.8178 C   0  0  0  0  0  0  0  0  0  0  0  0
    1.0083  -27.4910   21.4590 C   0  0  0  0  0  0  0  0  0  0  0  0
    2.0468  -28.8529   21.6580 Cl  0  0  0  0  0  0  0  0  0  0  0  0
   -0.2268  -27.6929   20.8810 C   0  0  0  0  0  0  0  0  0  0  0  0
   -0.8502  -26.5829   20.3276 C   0  0  0  0  0  0  0  0  0  0  0  0
   -0.0275  -25.4403   20.1119 C   0  0  0  0  0  0  0  0  0  0  0  0
    1.2563  -24.6236   19.1087 S   0  0  0  0  0  0  0  0  0  0  0  0
    1.5820  -20.5211   18.9715 H   0  0  0  0  0  0  0  0  0  0  0  0
    4.7401  -18.6509   21.2505 H   0  0  0  0  0  0  0  0  0  0  0  0
    3.7397  -18.5349   22.5497 H   0  0  0  0  0  0  0  0  0  0  0  0
    6.0997  -16.6248   21.1547 H   0  0  0  0  0  0  0  0  0  0  0  0
    5.9303  -14.0289   20.7855 H   0  0  0  0  0  0  0  0  0  0  0  0
    1.8135  -15.8471   21.4088 H   0  0  0  0  0  0  0  0  0  0  0  0
    2.2378  -25.9849   22.4915 H   0  0  0  0  0  0  0  0  0  0  0  0
   -0.6616  -28.6816   20.7741 H   0  0  0  0  0  0  0  0  0  0  0  0
   -1.8197  -26.6728   19.8438 H   0  0  0  0  0  0  0  0  0  0  0  0
  1  2  3  0
  2  3  1  0
  3  4  1  0
  4  5  2  0
  4  6  1  0
  6  7  1  0
  7  8  1  0
  8  9  2  0
  9 10  1  0
 10 11  1  0
  3 12  1  0
 12 13  2  0
 13 14  1  0
 14 15  2  0
 15 16  1  0
 16 17  1  0
 16 18  2  0
 18 19  1  0
 19 20  2  0
 20 21  1  0
 11  7  2  0
 21 12  1  0
 20 14  1  0
  3 22  1  0
  6 23  1  0
  6 24  1  0
  8 25  1  0
  9 26  1  0
 11 27  1  0
 15 28  1  0
 18 29  1  0
 19 30  1  0
M  END
>  <Energy>  (955) 
487.0446213559535

>  <compound_id>  (955) 
12324

>  <target_id>  (955) 
1

>  <reference_id>  (955) 
20

>  <inspiration_ids>  (955) 
[68, 20]

>  <energy_score>  (955) 
393.34116021419527

>  <distance_score>  (955) 
15.95241725857405

>  <path>  (955) 
/opt/xchem-fragalysis-2/maxwin/BulkDock/SCRATCH/511015/C12324-P20/C12324-P20.minimised.mol

>  <scratch_subdir>  (955) 
/opt/xchem-fragalysis-2/maxwin/BulkDock/SCRATCH/511015/C12324-P20

>  <fragmenstein_runtime>  (955) 
4.655711889266968

>  <fragmenstein_outcome>  (955) 
too moved

>  <fragmenstein_mode>  (955) 
expansion

>  <fragmenstein_error>  (955) 


$$$$
C12325-P68
     RDKit          3D

 45 48  0  0  0  0  0  0  0  0999 V2000
    1.9691  -18.2246   27.3110 O   0  0  0  0  0  0  0  0  0  0  0  0
    2.7513  -19.1423   27.1709 C   0  0  0  0  0  0  0  0  0  0  0  0
    3.6750  -18.9564   25.8575 C   0  0  0  0  0  0  0  0  0  0  0  0
    4.4498  -17.5152   25.8603 C   0  0  0  0  0  0  0  0  0  0  0  0
    4.9414  -16.7592   24.5848 C   0  0  0  0  0  0  0  0  0  0  0  0
    6.2779  -16.1975   24.4250 C   0  0  0  0  0  0  0  0  0  0  0  0
    6.4343  -15.4037   23.3034 C   0  0  0  0  0  0  0  0  0  0  0  0
    4.9888  -15.3040   22.4045 S   0  0  0  0  0  0  0  0  0  0  0  0
    4.1600  -16.3189   23.5260 C   0  0  0  0  0  0  0  0  0  0  0  0
    3.0369  -20.2833   28.0384 N   0  0  0  0  0  0  0  0  0  0  0  0
    2.5079  -20.6351   29.4927 C   0  0  0  0  0  0  0  0  0  0  0  0
    3.2133  -19.7401   30.5476 C   0  0  0  0  0  0  0  0  0  0  0  0
    2.9526  -18.2415   30.4713 C   0  0  0  0  0  0  0  0  0  0  0  0
    4.2770  -17.6633   30.0357 C   0  0  0  0  0  0  0  0  0  0  0  0
    5.2657  -18.6515   30.6062 C   0  0  0  0  0  0  0  0  0  0  0  0
    4.6407  -19.9342   30.4938 O   0  0  0  0  0  0  0  0  0  0  0  0
    2.1119  -21.5105   27.6749 C   0  0  0  0  0  0  0  0  0  0  0  0
    0.7891  -21.5288   27.5040 N   0  0  0  0  0  0  0  0  0  0  0  0
    0.2548  -22.8532   27.5665 C   0  0  0  0  0  0  0  0  0  0  0  0
   -1.1189  -23.2333   27.5772 C   0  0  0  0  0  0  0  0  0  0  0  0
   -1.5090  -24.5870   27.6141 C   0  0  0  0  0  0  0  0  0  0  0  0
   -0.5429  -25.5832   27.6163 C   0  0  0  0  0  0  0  0  0  0  0  0
    0.8199  -25.2419   27.6306 C   0  0  0  0  0  0  0  0  0  0  0  0
    1.2030  -23.8725   27.6322 C   0  0  0  0  0  0  0  0  0  0  0  0
    2.7965  -23.1372   27.6952 S   0  0  0  0  0  0  0  0  0  0  0  0
    3.0300  -19.0044   24.9780 H   0  0  0  0  0  0  0  0  0  0  0  0
    4.4150  -19.7579   25.8221 H   0  0  0  0  0  0  0  0  0  0  0  0
    5.3204  -17.6475   26.5174 H   0  0  0  0  0  0  0  0  0  0  0  0
    3.8023  -16.7969   26.3815 H   0  0  0  0  0  0  0  0  0  0  0  0
    7.0781  -16.3556   25.1390 H   0  0  0  0  0  0  0  0  0  0  0  0
    7.3229  -14.8786   22.9814 H   0  0  0  0  0  0  0  0  0  0  0  0
    3.1076  -16.5117   23.3687 H   0  0  0  0  0  0  0  0  0  0  0  0
    2.7758  -21.6503   29.8123 H   0  0  0  0  0  0  0  0  0  0  0  0
    1.4348  -20.4085   29.5846 H   0  0  0  0  0  0  0  0  0  0  0  0
    2.8836  -20.0941   31.5331 H   0  0  0  0  0  0  0  0  0  0  0  0
    2.7148  -17.8695   31.4763 H   0  0  0  0  0  0  0  0  0  0  0  0
    2.1130  -17.9613   29.8322 H   0  0  0  0  0  0  0  0  0  0  0  0
    4.4434  -16.6420   30.3886 H   0  0  0  0  0  0  0  0  0  0  0  0
    4.3448  -17.6592   28.9442 H   0  0  0  0  0  0  0  0  0  0  0  0
    5.4593  -18.4567   31.6667 H   0  0  0  0  0  0  0  0  0  0  0  0
    6.2177  -18.6554   30.0687 H   0  0  0  0  0  0  0  0  0  0  0  0
   -1.8705  -22.4501   27.5491 H   0  0  0  0  0  0  0  0  0  0  0  0
   -2.5640  -24.8473   27.6131 H   0  0  0  0  0  0  0  0  0  0  0  0
   -0.8348  -26.6305   27.6152 H   0  0  0  0  0  0  0  0  0  0  0  0
    1.5816  -26.0161   27.6433 H   0  0  0  0  0  0  0  0  0  0  0  0
  1  2  2  0
  2  3  1  0
  3  4  1  0
  4  5  1  0
  5  6  1  0
  6  7  2  0
  7  8  1  0
  8  9  1  0
  2 10  1  0
 10 11  1  0
 11 12  1  0
 12 13  1  0
 13 14  1  0
 14 15  1  0
 15 16  1  0
 10 17  1  0
 17 18  2  0
 18 19  1  0
 19 20  2  0
 20 21  1  0
 21 22  2  0
 22 23  1  0
 23 24  2  0
 24 25  1  0
  9  5  2  0
 16 12  1  0
 25 17  1  0
 24 19  1  0
  3 26  1  0
  3 27  1  0
  4 28  1  0
  4 29  1  0
  6 30  1  0
  7 31  1  0
  9 32  1  0
 11 33  1  0
 11 34  1  0
 12 35  1  0
 13 36  1  0
 13 37  1  0
 14 38  1  0
 14 39  1  0
 15 40  1  0
 15 41  1  0
 20 42  1  0
 21 43  1  0
 22 44  1  0
 23 45  1  0
M  END
>  <Energy>  (956) 
122.29150362175746

>  <compound_id>  (956) 
12325

>  <target_id>  (956) 
1

>  <reference_id>  (956) 
68

>  <inspiration_ids>  (956) 
[68, 20]

>  <energy_score>  (956) 
7.057508670148593

>  <distance_score>  (956) 
17.174151546917926

>  <path>  (956) 
/opt/xchem-fragalysis-2/maxwin/BulkDock/SCRATCH/511015/C12325-P68/C12325-P68.minimised.mol

>  <scratch_subdir>  (956) 
/opt/xchem-fragalysis-2/maxwin/BulkDock/SCRATCH/511015/C12325-P68

>  <fragmenstein_runtime>  (956) 
23.929577350616455

>  <fragmenstein_outcome>  (956) 
too moved

>  <fragmenstein_mode>  (956) 
expansion

>  <fragmenstein_error>  (956) 


$$$$
C12325-P20
     RDKit          3D

 45 48  0  0  0  0  0  0  0  0999 V2000
    3.6877  -19.3752   21.4401 O   0  0  0  0  0  0  0  0  0  0  0  0
    2.5337  -19.4717   21.0369 C   0  0  0  0  0  0  0  0  0  0  0  0
    1.4986  -18.5480   22.0447 C   0  0  0  0  0  0  0  0  0  0  0  0
    2.3735  -17.2919   22.9372 C   0  0  0  0  0  0  0  0  0  0  0  0
    2.9269  -15.9203   22.3508 C   0  0  0  0  0  0  0  0  0  0  0  0
    4.3362  -15.6371   22.0907 C   0  0  0  0  0  0  0  0  0  0  0  0
    4.5783  -14.3785   21.5726 C   0  0  0  0  0  0  0  0  0  0  0  0
    3.1367  -13.4813   21.4147 S   0  0  0  0  0  0  0  0  0  0  0  0
    2.1929  -14.7824   22.0423 C   0  0  0  0  0  0  0  0  0  0  0  0
    1.9123  -20.2444   19.6224 N   0  0  0  0  0  0  0  0  0  0  0  0
    2.6880  -20.9306   18.3786 C   0  0  0  0  0  0  0  0  0  0  0  0
    3.7244  -21.2343   17.1495 C   0  0  0  0  0  0  0  0  0  0  0  0
    3.4092  -22.5286   16.3486 C   0  0  0  0  0  0  0  0  0  0  0  0
    3.9313  -22.2311   14.9665 C   0  0  0  0  0  0  0  0  0  0  0  0
    3.5025  -20.7980   14.8181 C   0  0  0  0  0  0  0  0  0  0  0  0
    3.7087  -20.2146   16.1078 O   0  0  0  0  0  0  0  0  0  0  0  0
    1.4332  -22.0628   19.9934 C   0  0  0  0  0  0  0  0  0  0  0  0
    0.6316  -23.1340   20.7876 N   0  0  0  0  0  0  0  0  0  0  0  0
    0.6329  -24.8433   20.4485 C   0  0  0  0  0  0  0  0  0  0  0  0
    0.1326  -26.1058   20.9924 C   0  0  0  0  0  0  0  0  0  0  0  0
    0.7852  -27.3338   20.7855 C   0  0  0  0  0  0  0  0  0  0  0  0
    1.8584  -27.3828   19.9186 C   0  0  0  0  0  0  0  0  0  0  0  0
    2.1856  -26.2477   19.1630 C   0  0  0  0  0  0  0  0  0  0  0  0
    1.5080  -25.0475   19.4438 C   0  0  0  0  0  0  0  0  0  0  0  0
    1.0314  -23.6779   18.5756 S   0  0  0  0  0  0  0  0  0  0  0  0
    1.1629  -19.1080   22.8929 H   0  0  0  0  0  0  0  0  0  0  0  0
    0.6888  -18.0282   21.5328 H   0  0  0  0  0  0  0  0  0  0  0  0
    1.6790  -17.0066   23.7399 H   0  0  0  0  0  0  0  0  0  0  0  0
    3.2178  -17.8054   23.4160 H   0  0  0  0  0  0  0  0  0  0  0  0
    5.1237  -16.3653   22.2542 H   0  0  0  0  0  0  0  0  0  0  0  0
    5.5299  -13.9550   21.2830 H   0  0  0  0  0  0  0  0  0  0  0  0
    1.1247  -14.6470   22.1389 H   0  0  0  0  0  0  0  0  0  0  0  0
    2.6083  -19.9135   17.9736 H   0  0  0  0  0  0  0  0  0  0  0  0
    1.8837  -21.2893   17.7681 H   0  0  0  0  0  0  0  0  0  0  0  0
    4.7454  -21.3736   17.4878 H   0  0  0  0  0  0  0  0  0  0  0  0
    2.3320  -22.6894   16.2602 H   0  0  0  0  0  0  0  0  0  0  0  0
    3.8573  -23.4281   16.7771 H   0  0  0  0  0  0  0  0  0  0  0  0
    5.0242  -22.3103   14.9546 H   0  0  0  0  0  0  0  0  0  0  0  0
    3.5209  -22.8842   14.1923 H   0  0  0  0  0  0  0  0  0  0  0  0
    2.4397  -20.7123   14.5689 H   0  0  0  0  0  0  0  0  0  0  0  0
    4.0855  -20.2550   14.0696 H   0  0  0  0  0  0  0  0  0  0  0  0
   -0.7621  -26.2134   21.5961 H   0  0  0  0  0  0  0  0  0  0  0  0
    0.4259  -28.2364   21.2726 H   0  0  0  0  0  0  0  0  0  0  0  0
    2.3520  -28.3286   19.7087 H   0  0  0  0  0  0  0  0  0  0  0  0
    2.8461  -26.3244   18.3049 H   0  0  0  0  0  0  0  0  0  0  0  0
  1  2  2  0
  2  3  1  0
  3  4  1  0
  4  5  1  0
  5  6  1  0
  6  7  2  0
  7  8  1  0
  8  9  1  0
  2 10  1  0
 10 11  1  0
 11 12  1  0
 12 13  1  0
 13 14  1  0
 14 15  1  0
 15 16  1  0
 10 17  1  0
 17 18  2  0
 18 19  1  0
 19 20  2  0
 20 21  1  0
 21 22  2  0
 22 23  1  0
 23 24  2  0
 24 25  1  0
  9  5  2  0
 16 12  1  0
 25 17  1  0
 24 19  1  0
  3 26  1  0
  3 27  1  0
  4 28  1  0
  4 29  1  0
  6 30  1  0
  7 31  1  0
  9 32  1  0
 11 33  1  0
 11 34  1  0
 12 35  1  0
 13 36  1  0
 13 37  1  0
 14 38  1  0
 14 39  1  0
 15 40  1  0
 15 41  1  0
 20 42  1  0
 21 43  1  0
 22 44  1  0
 23 45  1  0
M  END
>  <Energy>  (957) 
503.35490996343322

>  <compound_id>  (957) 
12325

>  <target_id>  (957) 
1

>  <reference_id>  (957) 
20

>  <inspiration_ids>  (957) 
[68, 20]

>  <energy_score>  (957) 
388.12091501182255

>  <distance_score>  (957) 
16.637449226607366

>  <path>  (957) 
/opt/xchem-fragalysis-2/maxwin/BulkDock/SCRATCH/511015/C12325-P20/C12325-P20.minimised.mol

>  <scratch_subdir>  (957) 
/opt/xchem-fragalysis-2/maxwin/BulkDock/SCRATCH/511015/C12325-P20

>  <fragmenstein_runtime>  (957) 
10.657185077667236

>  <fragmenstein_outcome>  (957) 
too moved

>  <fragmenstein_mode>  (957) 
expansion

>  <fragmenstein_error>  (957) 


$$$$
C12327-P68
     RDKit          3D

 32 34  0  0  0  0  0  0  0  0999 V2000
    2.7584  -23.3585   16.9954 O   0  0  0  0  0  0  0  0  0  0  0  0
    2.1421  -22.5698   17.6695 C   0  0  0  0  0  0  0  0  0  0  0  0
    1.0794  -23.2035   18.7971 C   0  0  0  0  0  0  0  0  0  0  0  0
    1.2979  -25.0403   19.0792 S   0  0  0  0  0  0  0  0  0  0  0  0
    0.2942  -25.9502   20.2754 C   0  0  0  0  0  0  0  0  0  0  0  0
   -1.0119  -25.9566   20.4084 N   0  0  0  0  0  0  0  0  0  0  0  0
   -1.4874  -26.7960   21.4404 C   0  0  0  0  0  0  0  0  0  0  0  0
   -2.7881  -26.8379   22.0271 C   0  0  0  0  0  0  0  0  0  0  0  0
   -3.1567  -27.8712   22.8888 C   0  0  0  0  0  0  0  0  0  0  0  0
   -2.2903  -28.9349   23.0675 C   0  0  0  0  0  0  0  0  0  0  0  0
   -1.0128  -28.9189   22.4851 C   0  0  0  0  0  0  0  0  0  0  0  0
   -0.5774  -27.7716   21.7829 C   0  0  0  0  0  0  0  0  0  0  0  0
    0.9641  -27.2105   21.2011 S   0  0  0  0  0  0  0  0  0  0  0  0
    2.1096  -21.0541   17.6267 N   0  0  0  0  0  0  0  0  0  0  0  0
    2.8802  -20.1100   16.8304 N   0  0  0  0  0  0  0  0  0  0  0  0
    2.6623  -18.8147   16.9518 C   0  0  0  0  0  0  0  0  0  0  0  0
    3.5058  -17.7055   16.3853 C   0  0  0  0  0  0  0  0  0  0  0  0
    3.3108  -16.2837   16.6518 C   0  0  0  0  0  0  0  0  0  0  0  0
    4.2689  -15.4620   16.0889 C   0  0  0  0  0  0  0  0  0  0  0  0
    5.4240  -16.3649   15.2178 S   0  0  0  0  0  0  0  0  0  0  0  0
    4.6308  -17.8511   15.5887 C   0  0  0  0  0  0  0  0  0  0  0  0
    0.0873  -23.0879   18.3663 H   0  0  0  0  0  0  0  0  0  0  0  0
    1.1748  -22.6493   19.7328 H   0  0  0  0  0  0  0  0  0  0  0  0
   -3.4952  -26.0508   21.7904 H   0  0  0  0  0  0  0  0  0  0  0  0
   -4.1350  -27.8643   23.3592 H   0  0  0  0  0  0  0  0  0  0  0  0
   -2.5762  -29.7718   23.6960 H   0  0  0  0  0  0  0  0  0  0  0  0
   -0.3363  -29.7396   22.6691 H   0  0  0  0  0  0  0  0  0  0  0  0
    1.5443  -20.7103   18.3948 H   0  0  0  0  0  0  0  0  0  0  0  0
    1.8036  -18.4801   17.5574 H   0  0  0  0  0  0  0  0  0  0  0  0
    2.4952  -15.8961   17.2505 H   0  0  0  0  0  0  0  0  0  0  0  0
    4.3412  -14.3844   16.1467 H   0  0  0  0  0  0  0  0  0  0  0  0
    5.0457  -18.7799   15.2177 H   0  0  0  0  0  0  0  0  0  0  0  0
  1  2  2  0
  2  3  1  0
  3  4  1  0
  4  5  1  0
  5  6  2  0
  6  7  1  0
  7  8  2  0
  8  9  1  0
  9 10  2  0
 10 11  1  0
 11 12  2  0
 12 13  1  0
  2 14  1  0
 14 15  1  0
 15 16  2  3
 16 17  1  0
 17 18  1  0
 18 19  2  0
 19 20  1  0
 20 21  1  0
 13  5  1  0
 21 17  2  0
 12  7  1  0
  3 22  1  0
  3 23  1  0
  8 24  1  0
  9 25  1  0
 10 26  1  0
 11 27  1  0
 14 28  1  0
 16 29  1  0
 18 30  1  0
 19 31  1  0
 21 32  1  0
M  END
>  <Energy>  (958) 
131.27850267686651

>  <compound_id>  (958) 
12327

>  <target_id>  (958) 
1

>  <reference_id>  (958) 
68

>  <inspiration_ids>  (958) 
[68, 20]

>  <energy_score>  (958) 
-47.31532912919624

>  <distance_score>  (958) 
14.811730818363673

>  <path>  (958) 
/opt/xchem-fragalysis-2/maxwin/BulkDock/SCRATCH/511015/C12327-P68/C12327-P68.minimised.mol

>  <scratch_subdir>  (958) 
/opt/xchem-fragalysis-2/maxwin/BulkDock/SCRATCH/511015/C12327-P68

>  <fragmenstein_runtime>  (958) 
12.073591232299805

>  <fragmenstein_outcome>  (958) 
too moved

>  <fragmenstein_mode>  (958) 
expansion

>  <fragmenstein_error>  (958) 


$$$$
C12327-P20
     RDKit          3D

 32 34  0  0  0  0  0  0  0  0999 V2000
    5.7241  -17.0072   22.1417 O   0  0  0  0  0  0  0  0  0  0  0  0
    5.7953  -17.8443   21.2565 C   0  0  0  0  0  0  0  0  0  0  0  0
    4.1674  -19.0851   21.3362 C   0  0  0  0  0  0  0  0  0  0  0  0
    2.5689  -20.4872   20.0605 S   0  0  0  0  0  0  0  0  0  0  0  0
    1.2808  -22.4751   20.2061 C   0  0  0  0  0  0  0  0  0  0  0  0
    0.5829  -23.3904   21.0930 N   0  0  0  0  0  0  0  0  0  0  0  0
    0.5787  -25.1034   20.7239 C   0  0  0  0  0  0  0  0  0  0  0  0
    0.0381  -26.3586   21.2810 C   0  0  0  0  0  0  0  0  0  0  0  0
    0.5699  -27.6250   20.9874 C   0  0  0  0  0  0  0  0  0  0  0  0
    1.6235  -27.7145   20.1025 C   0  0  0  0  0  0  0  0  0  0  0  0
    2.0334  -26.5729   19.3968 C   0  0  0  0  0  0  0  0  0  0  0  0
    1.4179  -25.3400   19.6919 C   0  0  0  0  0  0  0  0  0  0  0  0
    1.0600  -23.9547   18.8152 S   0  0  0  0  0  0  0  0  0  0  0  0
    6.7525  -17.9865   20.1829 N   0  0  0  0  0  0  0  0  0  0  0  0
    7.8328  -17.1534   19.7725 N   0  0  0  0  0  0  0  0  0  0  0  0
    7.7153  -15.8683   20.0520 C   0  0  0  0  0  0  0  0  0  0  0  0
    8.5652  -14.7779   19.5053 C   0  0  0  0  0  0  0  0  0  0  0  0
    9.6814  -14.8486   18.6013 C   0  0  0  0  0  0  0  0  0  0  0  0
   10.1845  -13.6103   18.2403 C   0  0  0  0  0  0  0  0  0  0  0  0
    9.3329  -12.3319   18.9838 S   0  0  0  0  0  0  0  0  0  0  0  0
    8.3028  -13.4406   19.7926 C   0  0  0  0  0  0  0  0  0  0  0  0
    4.9826  -19.6833   20.8610 H   0  0  0  0  0  0  0  0  0  0  0  0
    3.7966  -19.1773   22.3514 H   0  0  0  0  0  0  0  0  0  0  0  0
   -0.8033  -26.4066   21.9687 H   0  0  0  0  0  0  0  0  0  0  0  0
    0.1579  -28.5174   21.4497 H   0  0  0  0  0  0  0  0  0  0  0  0
    2.0506  -28.6818   19.8491 H   0  0  0  0  0  0  0  0  0  0  0  0
    2.6894  -26.6667   18.5358 H   0  0  0  0  0  0  0  0  0  0  0  0
    6.5649  -18.8204   19.6990 H   0  0  0  0  0  0  0  0  0  0  0  0
    6.8640  -15.5074   20.6540 H   0  0  0  0  0  0  0  0  0  0  0  0
   10.0846  -15.7800   18.2204 H   0  0  0  0  0  0  0  0  0  0  0  0
   11.0099  -13.4025   17.5724 H   0  0  0  0  0  0  0  0  0  0  0  0
    7.5266  -13.0489   20.4366 H   0  0  0  0  0  0  0  0  0  0  0  0
  1  2  2  0
  2  3  1  0
  3  4  1  0
  4  5  1  0
  5  6  2  0
  6  7  1  0
  7  8  2  0
  8  9  1  0
  9 10  2  0
 10 11  1  0
 11 12  2  0
 12 13  1  0
  2 14  1  0
 14 15  1  0
 15 16  2  3
 16 17  1  0
 17 18  1  0
 18 19  2  0
 19 20  1  0
 20 21  1  0
 13  5  1  0
 21 17  2  0
 12  7  1  0
  3 22  1  0
  3 23  1  0
  8 24  1  0
  9 25  1  0
 10 26  1  0
 11 27  1  0
 14 28  1  0
 16 29  1  0
 18 30  1  0
 19 31  1  0
 21 32  1  0
M  END
>  <Energy>  (959) 
603.84519142737554

>  <compound_id>  (959) 
12327

>  <target_id>  (959) 
1

>  <reference_id>  (959) 
20

>  <inspiration_ids>  (959) 
[68, 20]

>  <energy_score>  (959) 
425.2513596213152

>  <distance_score>  (959) 
14.391159859377309

>  <path>  (959) 
/opt/xchem-fragalysis-2/maxwin/BulkDock/SCRATCH/511015/C12327-P20/C12327-P20.minimised.mol

>  <scratch_subdir>  (959) 
/opt/xchem-fragalysis-2/maxwin/BulkDock/SCRATCH/511015/C12327-P20

>  <fragmenstein_runtime>  (959) 
5.769854784011841

>  <fragmenstein_outcome>  (959) 
too moved

>  <fragmenstein_mode>  (959) 
expansion

>  <fragmenstein_error>  (959) 


$$$$
C12328-P68
     RDKit          3D

 49 52  0  0  0  0  0  0  0  0999 V2000
    0.3884  -22.6864   17.2918 O   0  0  0  0  0  0  0  0  0  0  0  0
    1.5020  -22.5600   17.7215 C   0  0  0  0  0  0  0  0  0  0  0  0
    2.5567  -21.4492   17.4684 N   0  0  0  0  0  0  0  0  0  0  0  0
    2.5299  -20.2552   16.5278 C   0  0  0  0  0  0  0  0  0  0  0  0
    3.2841  -18.7661   16.4586 C   0  0  0  0  0  0  0  0  0  0  0  0
    5.0342  -17.9429   15.8212 S   0  0  0  0  0  0  0  0  0  0  0  0
    4.7498  -16.0962   16.1920 C   0  0  0  0  0  0  0  0  0  0  0  0
    5.9147  -15.1007   16.0253 C   0  0  0  0  0  0  0  0  0  0  0  0
    6.2675  -14.4071   14.8044 C   0  0  0  0  0  0  0  0  0  0  0  0
    7.2199  -13.4194   14.9741 C   0  0  0  0  0  0  0  0  0  0  0  0
    7.7255  -13.3043   16.5992 S   0  0  0  0  0  0  0  0  0  0  0  0
    6.6699  -14.5770   17.0686 C   0  0  0  0  0  0  0  0  0  0  0  0
    2.0264  -23.8078   18.6263 C   0  0  0  0  0  0  0  0  0  0  0  0
    3.3696  -24.0518   17.7774 C   0  0  0  0  0  0  0  0  0  0  0  0
    4.2080  -25.2888   17.8254 C   0  0  0  0  0  0  0  0  0  0  0  0
    3.9775  -26.3132   18.6372 C   0  0  0  0  0  0  0  0  0  0  0  0
    2.7884  -26.3500   19.5217 C   0  0  0  0  0  0  0  0  0  0  0  0
    1.5578  -25.4003   19.1716 C   0  0  0  0  0  0  0  0  0  0  0  0
    0.3845  -26.0602   20.1460 C   0  0  0  0  0  0  0  0  0  0  0  0
   -0.3897  -25.4876   20.9907 N   0  0  0  0  0  0  0  0  0  0  0  0
   -1.6588  -26.0854   21.2017 C   0  0  0  0  0  0  0  0  0  0  0  0
   -3.1022  -25.5368   21.5291 C   0  0  0  0  0  0  0  0  0  0  0  0
   -4.6410  -26.0611   21.6841 C   0  0  0  0  0  0  0  0  0  0  0  0
   -4.8104  -27.4369   20.9970 C   0  0  0  0  0  0  0  0  0  0  0  0
   -3.2871  -28.1175   21.0628 C   0  0  0  0  0  0  0  0  0  0  0  0
   -1.5994  -27.4426   21.1686 C   0  0  0  0  0  0  0  0  0  0  0  0
    0.0909  -27.7682   20.5952 S   0  0  0  0  0  0  0  0  0  0  0  0
    3.3617  -21.6104   18.0565 H   0  0  0  0  0  0  0  0  0  0  0  0
    2.5366  -20.6752   15.5165 H   0  0  0  0  0  0  0  0  0  0  0  0
    1.5238  -19.9258   16.7558 H   0  0  0  0  0  0  0  0  0  0  0  0
    2.6955  -18.2860   15.6714 H   0  0  0  0  0  0  0  0  0  0  0  0
    3.0500  -18.2301   17.3738 H   0  0  0  0  0  0  0  0  0  0  0  0
    3.9292  -15.7789   15.5387 H   0  0  0  0  0  0  0  0  0  0  0  0
    4.3881  -16.0386   17.2247 H   0  0  0  0  0  0  0  0  0  0  0  0
    5.8040  -14.6109   13.8456 H   0  0  0  0  0  0  0  0  0  0  0  0
    7.6310  -12.7595   14.2218 H   0  0  0  0  0  0  0  0  0  0  0  0
    6.6159  -14.8547   18.1130 H   0  0  0  0  0  0  0  0  0  0  0  0
    1.9113  -23.1904   19.5250 H   0  0  0  0  0  0  0  0  0  0  0  0
    3.1205  -23.9455   16.7107 H   0  0  0  0  0  0  0  0  0  0  0  0
    4.0975  -23.2705   18.0093 H   0  0  0  0  0  0  0  0  0  0  0  0
    5.0708  -25.3187   17.1647 H   0  0  0  0  0  0  0  0  0  0  0  0
    4.6473  -27.1682   18.6424 H   0  0  0  0  0  0  0  0  0  0  0  0
    2.5034  -27.4064   19.5283 H   0  0  0  0  0  0  0  0  0  0  0  0
    3.0684  -26.2486   20.5689 H   0  0  0  0  0  0  0  0  0  0  0  0
    1.1216  -25.5893   18.2177 H   0  0  0  0  0  0  0  0  0  0  0  0
   -3.2690  -24.7852   22.2594 H   0  0  0  0  0  0  0  0  0  0  0  0
   -5.2116  -25.4392   22.3690 H   0  0  0  0  0  0  0  0  0  0  0  0
   -5.7255  -27.9692   21.0409 H   0  0  0  0  0  0  0  0  0  0  0  0
   -3.2899  -27.1784   20.5646 H   0  0  0  0  0  0  0  0  0  0  0  0
  1  2  2  0
  2  3  1  0
  3  4  1  0
  4  5  1  0
  5  6  1  0
  6  7  1  0
  7  8  1  0
  8  9  1  0
  9 10  2  0
 10 11  1  0
 11 12  1  0
  2 13  1  0
 13 14  1  0
 14 15  1  0
 15 16  2  0
 16 17  1  0
 17 18  1  0
 18 19  1  0
 19 20  2  0
 20 21  1  0
 21 22  2  0
 22 23  1  0
 23 24  2  0
 24 25  1  0
 25 26  2  0
 26 27  1  0
 12  8  2  0
 18 13  1  0
 27 19  1  0
 26 21  1  0
  3 28  1  0
  4 29  1  0
  4 30  1  0
  5 31  1  0
  5 32  1  0
  7 33  1  0
  7 34  1  0
  9 35  1  0
 10 36  1  0
 12 37  1  0
 13 38  1  0
 14 39  1  0
 14 40  1  0
 15 41  1  0
 16 42  1  0
 17 43  1  0
 17 44  1  0
 18 45  1  0
 22 46  1  0
 23 47  1  0
 24 48  1  0
 25 49  1  0
M  END
>  <Energy>  (960) 
493.13218230825555

>  <compound_id>  (960) 
12328

>  <target_id>  (960) 
1

>  <reference_id>  (960) 
68

>  <inspiration_ids>  (960) 
[68, 20]

>  <energy_score>  (960) 
368.68388329798245

>  <distance_score>  (960) 
13.011162594058892

>  <path>  (960) 
/opt/xchem-fragalysis-2/maxwin/BulkDock/SCRATCH/511015/C12328-P68/C12328-P68.minimised.mol

>  <scratch_subdir>  (960) 
/opt/xchem-fragalysis-2/maxwin/BulkDock/SCRATCH/511015/C12328-P68

>  <fragmenstein_runtime>  (960) 
42.48839449882507

>  <fragmenstein_outcome>  (960) 
too moved

>  <fragmenstein_mode>  (960) 
expansion

>  <fragmenstein_error>  (960) 


$$$$
C12328-P20
     RDKit          3D

 49 52  0  0  0  0  0  0  0  0999 V2000
    1.9542  -22.0440   16.4220 O   0  0  0  0  0  0  0  0  0  0  0  0
    3.1321  -22.0998   16.6781 C   0  0  0  0  0  0  0  0  0  0  0  0
    4.0481  -21.0718   17.2891 N   0  0  0  0  0  0  0  0  0  0  0  0
    3.6966  -19.4270   17.9727 C   0  0  0  0  0  0  0  0  0  0  0  0
    5.3450  -17.8320   18.9840 C   0  0  0  0  0  0  0  0  0  0  0  0
    7.0319  -16.7418   17.9679 S   0  0  0  0  0  0  0  0  0  0  0  0
    6.7699  -14.9466   18.4972 C   0  0  0  0  0  0  0  0  0  0  0  0
    7.6534  -13.8871   17.8177 C   0  0  0  0  0  0  0  0  0  0  0  0
    8.8493  -13.2952   18.3771 C   0  0  0  0  0  0  0  0  0  0  0  0
    9.3675  -12.2646   17.6165 C   0  0  0  0  0  0  0  0  0  0  0  0
    8.4334  -11.9764   16.2189 S   0  0  0  0  0  0  0  0  0  0  0  0
    7.3456  -13.2390   16.6288 C   0  0  0  0  0  0  0  0  0  0  0  0
    3.7551  -23.6679   16.2681 C   0  0  0  0  0  0  0  0  0  0  0  0
    4.9580  -23.3916   15.3461 C   0  0  0  0  0  0  0  0  0  0  0  0
    6.2764  -23.4920   16.0423 C   0  0  0  0  0  0  0  0  0  0  0  0
    6.5074  -24.4627   16.9314 C   0  0  0  0  0  0  0  0  0  0  0  0
    5.4589  -25.4783   17.2718 C   0  0  0  0  0  0  0  0  0  0  0  0
    3.9901  -24.9735   17.2501 C   0  0  0  0  0  0  0  0  0  0  0  0
    3.0616  -26.2818   17.5836 C   0  0  0  0  0  0  0  0  0  0  0  0
    2.7162  -26.5870   18.8427 N   0  0  0  0  0  0  0  0  0  0  0  0
    2.1094  -27.8520   18.9599 C   0  0  0  0  0  0  0  0  0  0  0  0
    1.4789  -28.3979   20.1176 C   0  0  0  0  0  0  0  0  0  0  0  0
    0.7783  -29.6140   20.0523 C   0  0  0  0  0  0  0  0  0  0  0  0
    0.7387  -30.3238   18.8575 C   0  0  0  0  0  0  0  0  0  0  0  0
    1.3976  -29.8376   17.7126 C   0  0  0  0  0  0  0  0  0  0  0  0
    2.0608  -28.5838   17.7728 C   0  0  0  0  0  0  0  0  0  0  0  0
    2.8244  -27.6318   16.5086 S   0  0  0  0  0  0  0  0  0  0  0  0
    4.9514  -21.4816   17.4360 H   0  0  0  0  0  0  0  0  0  0  0  0
    2.8305  -19.8383   18.6537 H   0  0  0  0  0  0  0  0  0  0  0  0
    3.0289  -19.1337   17.0527 H   0  0  0  0  0  0  0  0  0  0  0  0
    5.9806  -18.1727   19.9079 H   0  0  0  0  0  0  0  0  0  0  0  0
    5.0468  -16.7859   19.3128 H   0  0  0  0  0  0  0  0  0  0  0  0
    5.7241  -14.7037   18.2841 H   0  0  0  0  0  0  0  0  0  0  0  0
    6.9274  -14.9032   19.5792 H   0  0  0  0  0  0  0  0  0  0  0  0
    9.2945  -13.6104   19.3131 H   0  0  0  0  0  0  0  0  0  0  0  0
   10.2467  -11.6689   17.8172 H   0  0  0  0  0  0  0  0  0  0  0  0
    6.5005  -13.4313   15.9814 H   0  0  0  0  0  0  0  0  0  0  0  0
    2.9771  -24.0187   15.5843 H   0  0  0  0  0  0  0  0  0  0  0  0
    4.9574  -24.1066   14.5129 H   0  0  0  0  0  0  0  0  0  0  0  0
    4.8738  -22.3986   14.8889 H   0  0  0  0  0  0  0  0  0  0  0  0
    7.0708  -22.8104   15.7493 H   0  0  0  0  0  0  0  0  0  0  0  0
    7.4929  -24.5782   17.3754 H   0  0  0  0  0  0  0  0  0  0  0  0
    5.6797  -25.8741   18.2723 H   0  0  0  0  0  0  0  0  0  0  0  0
    5.5839  -26.3216   16.5811 H   0  0  0  0  0  0  0  0  0  0  0  0
    3.7944  -24.5389   18.1996 H   0  0  0  0  0  0  0  0  0  0  0  0
    1.4962  -27.8162   21.0335 H   0  0  0  0  0  0  0  0  0  0  0  0
    0.2601  -29.9912   20.9293 H   0  0  0  0  0  0  0  0  0  0  0  0
    0.1886  -31.2604   18.8003 H   0  0  0  0  0  0  0  0  0  0  0  0
    1.3458  -30.3806   16.7738 H   0  0  0  0  0  0  0  0  0  0  0  0
  1  2  2  0
  2  3  1  0
  3  4  1  0
  4  5  1  0
  5  6  1  0
  6  7  1  0
  7  8  1  0
  8  9  1  0
  9 10  2  0
 10 11  1  0
 11 12  1  0
  2 13  1  0
 13 14  1  0
 14 15  1  0
 15 16  2  0
 16 17  1  0
 17 18  1  0
 18 19  1  0
 19 20  2  0
 20 21  1  0
 21 22  2  0
 22 23  1  0
 23 24  2  0
 24 25  1  0
 25 26  2  0
 26 27  1  0
 12  8  2  0
 18 13  1  0
 27 19  1  0
 26 21  1  0
  3 28  1  0
  4 29  1  0
  4 30  1  0
  5 31  1  0
  5 32  1  0
  7 33  1  0
  7 34  1  0
  9 35  1  0
 10 36  1  0
 12 37  1  0
 13 38  1  0
 14 39  1  0
 14 40  1  0
 15 41  1  0
 16 42  1  0
 17 43  1  0
 17 44  1  0
 18 45  1  0
 22 46  1  0
 23 47  1  0
 24 48  1  0
 25 49  1  0
M  END
>  <Energy>  (961) 
629.34757851786435

>  <compound_id>  (961) 
12328

>  <target_id>  (961) 
1

>  <reference_id>  (961) 
20

>  <inspiration_ids>  (961) 
[68, 20]

>  <energy_score>  (961) 
504.8992795076168

>  <distance_score>  (961) 
13.50954203045951

>  <path>  (961) 
/opt/xchem-fragalysis-2/maxwin/BulkDock/SCRATCH/511015/C12328-P20/C12328-P20.minimised.mol

>  <scratch_subdir>  (961) 
/opt/xchem-fragalysis-2/maxwin/BulkDock/SCRATCH/511015/C12328-P20

>  <fragmenstein_runtime>  (961) 
28.189860582351685

>  <fragmenstein_outcome>  (961) 
too moved

>  <fragmenstein_mode>  (961) 
expansion

>  <fragmenstein_error>  (961) 


$$$$
C12329-P68
     RDKit          3D

 27 30  0  0  0  0  0  0  0  0999 V2000
   -4.6082  -22.1629   22.8785 C   0  0  0  0  0  0  0  0  0  0  0  0
   -5.3310  -22.3788   21.7126 C   0  0  0  0  0  0  0  0  0  0  0  0
   -5.4023  -21.3727   20.7387 C   0  0  0  0  0  0  0  0  0  0  0  0
   -4.7345  -20.1373   20.9606 C   0  0  0  0  0  0  0  0  0  0  0  0
   -4.6522  -18.7213   19.9535 S   0  0  0  0  0  0  0  0  0  0  0  0
   -3.6377  -17.8743   21.0869 C   0  0  0  0  0  0  0  0  0  0  0  0
   -3.0678  -16.5426   20.7073 N   0  0  0  0  0  0  0  0  0  0  0  0
   -2.1450  -15.6088   21.3146 C   0  0  0  0  0  0  0  0  0  0  0  0
   -1.6495  -14.7860   20.3002 C   0  0  0  0  0  0  0  0  0  0  0  0
   -0.5255  -13.7760   20.1749 C   0  0  0  0  0  0  0  0  0  0  0  0
    0.2670  -13.2366   21.2445 C   0  0  0  0  0  0  0  0  0  0  0  0
    1.2435  -12.3491   20.8162 C   0  0  0  0  0  0  0  0  0  0  0  0
    1.2239  -12.1412   19.1212 S   0  0  0  0  0  0  0  0  0  0  0  0
   -0.0912  -13.2382   18.9678 C   0  0  0  0  0  0  0  0  0  0  0  0
   -2.3857  -15.0729   19.1756 N   0  0  0  0  0  0  0  0  0  0  0  0
   -3.2697  -16.0496   19.4398 N   0  0  0  0  0  0  0  0  0  0  0  0
   -3.3858  -18.5885   22.1843 N   0  0  0  0  0  0  0  0  0  0  0  0
   -3.9992  -19.8871   22.1202 C   0  0  0  0  0  0  0  0  0  0  0  0
   -3.9452  -20.9345   23.0861 C   0  0  0  0  0  0  0  0  0  0  0  0
   -4.5419  -22.9421   23.6344 H   0  0  0  0  0  0  0  0  0  0  0  0
   -5.8366  -23.3276   21.5500 H   0  0  0  0  0  0  0  0  0  0  0  0
   -5.9622  -21.5335   19.8214 H   0  0  0  0  0  0  0  0  0  0  0  0
   -1.9284  -15.7231   22.3581 H   0  0  0  0  0  0  0  0  0  0  0  0
    0.1258  -13.4781   22.2903 H   0  0  0  0  0  0  0  0  0  0  0  0
    1.9624  -11.8151   21.4225 H   0  0  0  0  0  0  0  0  0  0  0  0
   -0.4888  -13.4437   17.9826 H   0  0  0  0  0  0  0  0  0  0  0  0
   -3.3734  -20.7740   23.9962 H   0  0  0  0  0  0  0  0  0  0  0  0
  1  2  2  0
  2  3  1  0
  3  4  2  0
  4  5  1  0
  5  6  1  0
  6  7  1  0
  7  8  1  0
  8  9  2  0
  9 10  1  0
 10 11  1  0
 11 12  2  0
 12 13  1  0
 13 14  1  0
  9 15  1  0
 15 16  2  0
  6 17  2  0
 17 18  1  0
 18 19  2  0
 19  1  1  0
 18  4  1  0
 16  7  1  0
 14 10  2  0
  1 20  1  0
  2 21  1  0
  3 22  1  0
  8 23  1  0
 11 24  1  0
 12 25  1  0
 14 26  1  0
 19 27  1  0
M  END
>  <Energy>  (962) 
70.914329662687962

>  <compound_id>  (962) 
12329

>  <target_id>  (962) 
1

>  <reference_id>  (962) 
68

>  <inspiration_ids>  (962) 
[68, 20]

>  <energy_score>  (962) 
-50.785982998942245

>  <distance_score>  (962) 
17.261943342493204

>  <path>  (962) 
/opt/xchem-fragalysis-2/maxwin/BulkDock/SCRATCH/511015/C12329-P68/C12329-P68.minimised.mol

>  <scratch_subdir>  (962) 
/opt/xchem-fragalysis-2/maxwin/BulkDock/SCRATCH/511015/C12329-P68

>  <fragmenstein_runtime>  (962) 
7.347239017486572

>  <fragmenstein_outcome>  (962) 
too moved

>  <fragmenstein_mode>  (962) 
expansion

>  <fragmenstein_error>  (962) 


$$$$
C12329-P20
     RDKit          3D

 27 30  0  0  0  0  0  0  0  0999 V2000
   -2.1861  -25.9795   17.6961 C   0  0  0  0  0  0  0  0  0  0  0  0
   -1.0743  -26.7946   17.8578 C   0  0  0  0  0  0  0  0  0  0  0  0
    0.1991  -26.3517   17.4529 C   0  0  0  0  0  0  0  0  0  0  0  0
    0.3440  -25.0592   16.8846 C   0  0  0  0  0  0  0  0  0  0  0  0
    1.7724  -24.2044   16.3099 S   0  0  0  0  0  0  0  0  0  0  0  0
    0.8572  -22.7899   15.9554 C   0  0  0  0  0  0  0  0  0  0  0  0
    1.4857  -21.5009   15.5584 N   0  0  0  0  0  0  0  0  0  0  0  0
    2.8149  -20.9806   15.3409 C   0  0  0  0  0  0  0  0  0  0  0  0
    2.6828  -19.6291   14.9999 C   0  0  0  0  0  0  0  0  0  0  0  0
    3.6198  -18.5023   14.6010 C   0  0  0  0  0  0  0  0  0  0  0  0
    5.0051  -18.6246   14.2357 C   0  0  0  0  0  0  0  0  0  0  0  0
    5.6164  -17.4069   13.9713 C   0  0  0  0  0  0  0  0  0  0  0  0
    4.5294  -16.0964   14.1148 S   0  0  0  0  0  0  0  0  0  0  0  0
    3.2414  -17.1652   14.5127 C   0  0  0  0  0  0  0  0  0  0  0  0
    1.3462  -19.3347   15.0537 N   0  0  0  0  0  0  0  0  0  0  0  0
    0.6456  -20.4401   15.3340 N   0  0  0  0  0  0  0  0  0  0  0  0
   -0.4547  -22.9705   16.1345 N   0  0  0  0  0  0  0  0  0  0  0  0
   -0.7588  -24.2273   16.7053 C   0  0  0  0  0  0  0  0  0  0  0  0
   -2.0357  -24.7067   17.1194 C   0  0  0  0  0  0  0  0  0  0  0  0
   -3.1694  -26.3198   18.0109 H   0  0  0  0  0  0  0  0  0  0  0  0
   -1.1841  -27.7812   18.3031 H   0  0  0  0  0  0  0  0  0  0  0  0
    1.0686  -26.9890   17.5878 H   0  0  0  0  0  0  0  0  0  0  0  0
    3.6558  -21.6433   15.4543 H   0  0  0  0  0  0  0  0  0  0  0  0
    5.5353  -19.5675   14.1763 H   0  0  0  0  0  0  0  0  0  0  0  0
    6.6445  -17.2302   13.6849 H   0  0  0  0  0  0  0  0  0  0  0  0
    2.2573  -16.7551   14.7020 H   0  0  0  0  0  0  0  0  0  0  0  0
   -2.8994  -24.0604   16.9890 H   0  0  0  0  0  0  0  0  0  0  0  0
  1  2  2  0
  2  3  1  0
  3  4  2  0
  4  5  1  0
  5  6  1  0
  6  7  1  0
  7  8  1  0
  8  9  2  0
  9 10  1  0
 10 11  1  0
 11 12  2  0
 12 13  1  0
 13 14  1  0
  9 15  1  0
 15 16  2  0
  6 17  2  0
 17 18  1  0
 18 19  2  0
 19  1  1  0
 18  4  1  0
 16  7  1  0
 14 10  2  0
  1 20  1  0
  2 21  1  0
  3 22  1  0
  8 23  1  0
 11 24  1  0
 12 25  1  0
 14 26  1  0
 19 27  1  0
M  END
>  <Energy>  (963) 
72.12431982450444

>  <compound_id>  (963) 
12329

>  <target_id>  (963) 
1

>  <reference_id>  (963) 
20

>  <inspiration_ids>  (963) 
[68, 20]

>  <energy_score>  (963) 
-49.57599283712591

>  <distance_score>  (963) 
16.9758318814299

>  <path>  (963) 
/opt/xchem-fragalysis-2/maxwin/BulkDock/SCRATCH/511015/C12329-P20/C12329-P20.minimised.mol

>  <scratch_subdir>  (963) 
/opt/xchem-fragalysis-2/maxwin/BulkDock/SCRATCH/511015/C12329-P20

>  <fragmenstein_runtime>  (963) 
3.684891700744629

>  <fragmenstein_outcome>  (963) 
too moved

>  <fragmenstein_mode>  (963) 
expansion

>  <fragmenstein_error>  (963) 


$$$$
C12330-P68
     RDKit          3D

 34 37  0  0  0  0  0  0  0  0999 V2000
    6.9698  -23.9890   16.2323 O   0  0  0  0  0  0  0  0  0  0  0  0
    5.9130  -23.5693   16.6043 C   0  0  0  0  0  0  0  0  0  0  0  0
    4.8004  -24.2475   17.2484 N   0  0  0  0  0  0  0  0  0  0  0  0
    4.5854  -25.6820   17.5555 C   0  0  0  0  0  0  0  0  0  0  0  0
    3.8369  -26.1333   18.7913 C   0  0  0  0  0  0  0  0  0  0  0  0
    2.5780  -25.8337   19.2617 C   0  0  0  0  0  0  0  0  0  0  0  0
    2.3614  -26.5689   20.4550 N   0  0  0  0  0  0  0  0  0  0  0  0
    1.1130  -26.7864   21.1519 C   0  0  0  0  0  0  0  0  0  0  0  0
    0.6196  -27.6286   22.0814 N   0  0  0  0  0  0  0  0  0  0  0  0
   -0.3068  -28.6022   21.4295 C   0  0  0  0  0  0  0  0  0  0  0  0
   -0.8425  -29.8628   21.8694 C   0  0  0  0  0  0  0  0  0  0  0  0
   -0.7847  -30.9595   20.9964 C   0  0  0  0  0  0  0  0  0  0  0  0
   -0.3518  -30.8469   19.6806 C   0  0  0  0  0  0  0  0  0  0  0  0
    0.0495  -29.6048   19.1795 C   0  0  0  0  0  0  0  0  0  0  0  0
   -0.0052  -28.4894   20.0631 C   0  0  0  0  0  0  0  0  0  0  0  0
   -0.0938  -26.7178   20.0397 S   0  0  0  0  0  0  0  0  0  0  0  0
    3.4378  -27.3832   20.6014 N   0  0  0  0  0  0  0  0  0  0  0  0
    4.3251  -27.1244   19.6265 N   0  0  0  0  0  0  0  0  0  0  0  0
    5.7223  -22.0963   16.2173 C   0  0  0  0  0  0  0  0  0  0  0  0
    6.8449  -21.2363   15.7771 C   0  0  0  0  0  0  0  0  0  0  0  0
    6.4918  -19.9591   15.3882 C   0  0  0  0  0  0  0  0  0  0  0  0
    4.8038  -19.7404   15.4842 S   0  0  0  0  0  0  0  0  0  0  0  0
    4.5637  -21.3393   16.1197 C   0  0  0  0  0  0  0  0  0  0  0  0
    4.0303  -23.5979   17.3484 H   0  0  0  0  0  0  0  0  0  0  0  0
    4.0668  -26.0876   16.6792 H   0  0  0  0  0  0  0  0  0  0  0  0
    5.5804  -26.1426   17.5622 H   0  0  0  0  0  0  0  0  0  0  0  0
    1.8360  -25.1352   18.9004 H   0  0  0  0  0  0  0  0  0  0  0  0
   -0.9902  -30.1646   22.8943 H   0  0  0  0  0  0  0  0  0  0  0  0
   -0.9347  -31.9462   21.4167 H   0  0  0  0  0  0  0  0  0  0  0  0
   -0.2979  -31.7323   19.0543 H   0  0  0  0  0  0  0  0  0  0  0  0
    0.3561  -29.5268   18.1519 H   0  0  0  0  0  0  0  0  0  0  0  0
    7.8668  -21.6001   15.7369 H   0  0  0  0  0  0  0  0  0  0  0  0
    7.1348  -19.1717   15.0188 H   0  0  0  0  0  0  0  0  0  0  0  0
    3.5483  -21.6338   16.3479 H   0  0  0  0  0  0  0  0  0  0  0  0
  1  2  2  0
  2  3  1  0
  3  4  1  0
  4  5  1  0
  5  6  2  0
  6  7  1  0
  7  8  1  0
  8  9  2  0
  9 10  1  0
 10 11  2  0
 11 12  1  0
 12 13  2  0
 13 14  1  0
 14 15  2  0
 15 16  1  0
  7 17  1  0
 17 18  2  0
  2 19  1  0
 19 20  1  0
 20 21  2  0
 21 22  1  0
 22 23  1  0
 18  5  1  0
 23 19  2  0
 16  8  1  0
 15 10  1  0
  3 24  1  0
  4 25  1  0
  4 26  1  0
  6 27  1  0
 11 28  1  0
 12 29  1  0
 13 30  1  0
 14 31  1  0
 20 32  1  0
 21 33  1  0
 23 34  1  0
M  END
>  <Energy>  (964) 
149.90284797649372

>  <compound_id>  (964) 
12330

>  <target_id>  (964) 
1

>  <reference_id>  (964) 
68

>  <inspiration_ids>  (964) 
[68, 20]

>  <energy_score>  (964) 
27.604115080769986

>  <distance_score>  (964) 
16.419258090001872

>  <path>  (964) 
/opt/xchem-fragalysis-2/maxwin/BulkDock/SCRATCH/511015/C12330-P68/C12330-P68.minimised.mol

>  <scratch_subdir>  (964) 
/opt/xchem-fragalysis-2/maxwin/BulkDock/SCRATCH/511015/C12330-P68

>  <fragmenstein_runtime>  (964) 
17.422032833099365

>  <fragmenstein_outcome>  (964) 
too moved

>  <fragmenstein_mode>  (964) 
expansion

>  <fragmenstein_error>  (964) 


$$$$
C12330-P20
     RDKit          3D

 34 37  0  0  0  0  0  0  0  0999 V2000
    6.4966  -18.4294   22.4708 O   0  0  0  0  0  0  0  0  0  0  0  0
    5.6074  -18.1685   21.8212 C   0  0  0  0  0  0  0  0  0  0  0  0
    4.9128  -19.5782   20.9216 N   0  0  0  0  0  0  0  0  0  0  0  0
    5.5141  -21.4550   20.7233 C   0  0  0  0  0  0  0  0  0  0  0  0
    5.6703  -23.2192   21.7216 C   0  0  0  0  0  0  0  0  0  0  0  0
    5.3941  -24.1536   22.8026 C   0  0  0  0  0  0  0  0  0  0  0  0
    5.3609  -25.4803   22.1661 N   0  0  0  0  0  0  0  0  0  0  0  0
    4.2919  -26.4892   21.9835 C   0  0  0  0  0  0  0  0  0  0  0  0
    2.9842  -26.2530   22.0331 N   0  0  0  0  0  0  0  0  0  0  0  0
    2.2270  -27.3587   21.5772 C   0  0  0  0  0  0  0  0  0  0  0  0
    0.8129  -27.4420   21.4132 C   0  0  0  0  0  0  0  0  0  0  0  0
    0.1749  -28.6636   21.1433 C   0  0  0  0  0  0  0  0  0  0  0  0
    0.9365  -29.8110   20.9818 C   0  0  0  0  0  0  0  0  0  0  0  0
    2.3395  -29.7500   21.0593 C   0  0  0  0  0  0  0  0  0  0  0  0
    2.9718  -28.5148   21.3521 C   0  0  0  0  0  0  0  0  0  0  0  0
    4.6654  -28.1004   21.4926 S   0  0  0  0  0  0  0  0  0  0  0  0
    6.3639  -25.4064   21.2467 N   0  0  0  0  0  0  0  0  0  0  0  0
    6.5786  -24.1169   20.9649 N   0  0  0  0  0  0  0  0  0  0  0  0
    5.4137  -16.6443   21.8271 C   0  0  0  0  0  0  0  0  0  0  0  0
    5.9080  -15.8353   20.6061 C   0  0  0  0  0  0  0  0  0  0  0  0
    6.0174  -14.4774   20.8142 C   0  0  0  0  0  0  0  0  0  0  0  0
    5.6583  -14.0752   22.4318 S   0  0  0  0  0  0  0  0  0  0  0  0
    5.3829  -15.7225   22.8855 C   0  0  0  0  0  0  0  0  0  0  0  0
    4.0925  -19.2686   20.4608 H   0  0  0  0  0  0  0  0  0  0  0  0
    6.4698  -21.3650   20.1673 H   0  0  0  0  0  0  0  0  0  0  0  0
    4.9001  -21.4769   19.8364 H   0  0  0  0  0  0  0  0  0  0  0  0
    4.8058  -24.1210   23.7108 H   0  0  0  0  0  0  0  0  0  0  0  0
    0.2200  -26.5450   21.5373 H   0  0  0  0  0  0  0  0  0  0  0  0
   -0.9083  -28.7036   21.0548 H   0  0  0  0  0  0  0  0  0  0  0  0
    0.4515  -30.7605   20.7639 H   0  0  0  0  0  0  0  0  0  0  0  0
    2.9365  -30.6436   20.8960 H   0  0  0  0  0  0  0  0  0  0  0  0
    6.1622  -16.3332   19.6768 H   0  0  0  0  0  0  0  0  0  0  0  0
    6.3182  -13.7171   20.1065 H   0  0  0  0  0  0  0  0  0  0  0  0
    5.2067  -15.9451   23.9275 H   0  0  0  0  0  0  0  0  0  0  0  0
  1  2  2  0
  2  3  1  0
  3  4  1  0
  4  5  1  0
  5  6  2  0
  6  7  1  0
  7  8  1  0
  8  9  2  0
  9 10  1  0
 10 11  2  0
 11 12  1  0
 12 13  2  0
 13 14  1  0
 14 15  2  0
 15 16  1  0
  7 17  1  0
 17 18  2  0
  2 19  1  0
 19 20  1  0
 20 21  2  0
 21 22  1  0
 22 23  1  0
 18  5  1  0
 23 19  2  0
 16  8  1  0
 15 10  1  0
  3 24  1  0
  4 25  1  0
  4 26  1  0
  6 27  1  0
 11 28  1  0
 12 29  1  0
 13 30  1  0
 14 31  1  0
 20 32  1  0
 21 33  1  0
 23 34  1  0
M  END
>  <Energy>  (965) 
386.96181495603452

>  <compound_id>  (965) 
12330

>  <target_id>  (965) 
1

>  <reference_id>  (965) 
20

>  <inspiration_ids>  (965) 
[68, 20]

>  <energy_score>  (965) 
264.6630820603068

>  <distance_score>  (965) 
15.308671012346773

>  <path>  (965) 
/opt/xchem-fragalysis-2/maxwin/BulkDock/SCRATCH/511015/C12330-P20/C12330-P20.minimised.mol

>  <scratch_subdir>  (965) 
/opt/xchem-fragalysis-2/maxwin/BulkDock/SCRATCH/511015/C12330-P20

>  <fragmenstein_runtime>  (965) 
8.398458242416382

>  <fragmenstein_outcome>  (965) 
too moved

>  <fragmenstein_mode>  (965) 
expansion

>  <fragmenstein_error>  (965) 


$$$$
C12331-P68
     RDKit          3D

 38 40  0  0  0  0  0  0  0  0999 V2000
    8.4080  -18.9808   23.1624 C   0  0  0  0  0  0  0  0  0  0  0  0
    7.9997  -19.2879   21.7230 C   0  0  0  0  0  0  0  0  0  0  0  0
    6.6341  -18.9216   21.5921 O   0  0  0  0  0  0  0  0  0  0  0  0
    8.1299  -20.9285   21.4774 C   0  0  0  0  0  0  0  0  0  0  0  0
    7.1000  -22.0065   21.9029 N   0  0  0  0  0  0  0  0  0  0  0  0
    6.8522  -23.3879   21.3717 C   0  0  0  0  0  0  0  0  0  0  0  0
    7.3415  -23.9612   20.4343 O   0  0  0  0  0  0  0  0  0  0  0  0
    5.7070  -24.2922   22.0239 C   0  0  0  0  0  0  0  0  0  0  0  0
    5.5724  -24.5836   23.3857 C   0  0  0  0  0  0  0  0  0  0  0  0
    4.6418  -25.5715   23.8724 C   0  0  0  0  0  0  0  0  0  0  0  0
    3.8010  -26.3164   23.0027 C   0  0  0  0  0  0  0  0  0  0  0  0
    2.8578  -27.2838   23.3570 N   0  0  0  0  0  0  0  0  0  0  0  0
    2.2846  -27.7576   22.2720 C   0  0  0  0  0  0  0  0  0  0  0  0
    2.8124  -27.0804   20.7851 S   0  0  0  0  0  0  0  0  0  0  0  0
    3.9252  -26.0514   21.6357 C   0  0  0  0  0  0  0  0  0  0  0  0
    4.8629  -25.0695   21.1496 C   0  0  0  0  0  0  0  0  0  0  0  0
    8.8877  -18.4180   20.6873 C   0  0  0  0  0  0  0  0  0  0  0  0
    8.9212  -16.8605   20.6758 C   0  0  0  0  0  0  0  0  0  0  0  0
    8.0427  -16.0087   19.9007 C   0  0  0  0  0  0  0  0  0  0  0  0
    8.3868  -14.6700   19.9183 C   0  0  0  0  0  0  0  0  0  0  0  0
    9.7783  -14.3936   20.8619 S   0  0  0  0  0  0  0  0  0  0  0  0
    9.9080  -16.0664   21.2482 C   0  0  0  0  0  0  0  0  0  0  0  0
    9.4635  -19.2108   23.3375 H   0  0  0  0  0  0  0  0  0  0  0  0
    7.8040  -19.5626   23.8679 H   0  0  0  0  0  0  0  0  0  0  0  0
    8.2343  -17.9268   23.4055 H   0  0  0  0  0  0  0  0  0  0  0  0
    6.0688  -19.7177   21.5333 H   0  0  0  0  0  0  0  0  0  0  0  0
    8.2167  -21.0759   20.3944 H   0  0  0  0  0  0  0  0  0  0  0  0
    9.0858  -21.2626   21.8982 H   0  0  0  0  0  0  0  0  0  0  0  0
    6.4516  -21.8193   22.6598 H   0  0  0  0  0  0  0  0  0  0  0  0
    6.2201  -24.0873   24.1059 H   0  0  0  0  0  0  0  0  0  0  0  0
    4.5846  -25.7676   24.9406 H   0  0  0  0  0  0  0  0  0  0  0  0
    1.5234  -28.5264   22.3043 H   0  0  0  0  0  0  0  0  0  0  0  0
    4.9532  -24.9255   20.0727 H   0  0  0  0  0  0  0  0  0  0  0  0
    9.9263  -18.7636   20.7812 H   0  0  0  0  0  0  0  0  0  0  0  0
    8.5608  -18.7097   19.6795 H   0  0  0  0  0  0  0  0  0  0  0  0
    7.1933  -16.3783   19.3374 H   0  0  0  0  0  0  0  0  0  0  0  0
    7.8832  -13.8541   19.4172 H   0  0  0  0  0  0  0  0  0  0  0  0
   10.7401  -16.3931   21.8567 H   0  0  0  0  0  0  0  0  0  0  0  0
  1  2  1  0
  2  3  1  0
  2  4  1  0
  4  5  1  0
  5  6  1  0
  6  7  2  0
  6  8  1  0
  8  9  2  0
  9 10  1  0
 10 11  2  0
 11 12  1  0
 12 13  2  0
 13 14  1  0
 14 15  1  0
 15 16  2  0
  2 17  1  0
 17 18  1  0
 18 19  1  0
 19 20  2  0
 20 21  1  0
 21 22  1  0
 16  8  1  0
 22 18  2  0
 15 11  1  0
  1 23  1  0
  1 24  1  0
  1 25  1  0
  3 26  1  0
  4 27  1  0
  4 28  1  0
  5 29  1  0
  9 30  1  0
 10 31  1  0
 13 32  1  0
 16 33  1  0
 17 34  1  0
 17 35  1  0
 19 36  1  0
 20 37  1  0
 22 38  1  0
M  END
>  <Energy>  (966) 
96.233540557513919

>  <compound_id>  (966) 
12331

>  <target_id>  (966) 
1

>  <reference_id>  (966) 
68

>  <inspiration_ids>  (966) 
[68, 20]

>  <energy_score>  (966) 
-50.68802193248797

>  <distance_score>  (966) 
16.938362092704818

>  <path>  (966) 
/opt/xchem-fragalysis-2/maxwin/BulkDock/SCRATCH/511015/C12331-P68/C12331-P68.minimised.mol

>  <scratch_subdir>  (966) 
/opt/xchem-fragalysis-2/maxwin/BulkDock/SCRATCH/511015/C12331-P68

>  <fragmenstein_runtime>  (966) 
21.308074474334717

>  <fragmenstein_outcome>  (966) 
too moved

>  <fragmenstein_mode>  (966) 
expansion

>  <fragmenstein_error>  (966) 


$$$$
C12331-P20
     RDKit          3D

 38 40  0  0  0  0  0  0  0  0999 V2000
   -2.8122  -13.5501   14.1509 C   0  0  0  0  0  0  0  0  0  0  0  0
   -3.1189  -13.3363   15.6440 C   0  0  0  0  0  0  0  0  0  0  0  0
   -2.1718  -13.9616   16.4817 O   0  0  0  0  0  0  0  0  0  0  0  0
   -4.5729  -14.1412   15.8953 C   0  0  0  0  0  0  0  0  0  0  0  0
   -4.7180  -15.6548   16.2828 N   0  0  0  0  0  0  0  0  0  0  0  0
   -5.8755  -16.4095   16.8735 C   0  0  0  0  0  0  0  0  0  0  0  0
   -6.9439  -16.0168   17.2650 O   0  0  0  0  0  0  0  0  0  0  0  0
   -5.7782  -17.9889   17.0595 C   0  0  0  0  0  0  0  0  0  0  0  0
   -6.3849  -18.8210   16.0990 C   0  0  0  0  0  0  0  0  0  0  0  0
   -6.7516  -20.1893   16.3432 C   0  0  0  0  0  0  0  0  0  0  0  0
   -6.5466  -20.7995   17.6002 C   0  0  0  0  0  0  0  0  0  0  0  0
   -6.8177  -22.1252   17.9469 N   0  0  0  0  0  0  0  0  0  0  0  0
   -6.4816  -22.3328   19.1981 C   0  0  0  0  0  0  0  0  0  0  0  0
   -5.8331  -20.9772   20.0255 S   0  0  0  0  0  0  0  0  0  0  0  0
   -5.9832  -19.9926   18.5969 C   0  0  0  0  0  0  0  0  0  0  0  0
   -5.6254  -18.6023   18.3457 C   0  0  0  0  0  0  0  0  0  0  0  0
   -3.0776  -11.7537   15.9914 C   0  0  0  0  0  0  0  0  0  0  0  0
   -1.7623  -10.8957   15.9233 C   0  0  0  0  0  0  0  0  0  0  0  0
   -1.2945  -10.1346   14.7778 C   0  0  0  0  0  0  0  0  0  0  0  0
   -0.1222   -9.4354   15.0048 C   0  0  0  0  0  0  0  0  0  0  0  0
    0.4370   -9.6455   16.6025 S   0  0  0  0  0  0  0  0  0  0  0  0
   -0.9079  -10.6448   16.9948 C   0  0  0  0  0  0  0  0  0  0  0  0
   -3.6084  -13.1349   13.5237 H   0  0  0  0  0  0  0  0  0  0  0  0
   -1.8805  -13.0770   13.8367 H   0  0  0  0  0  0  0  0  0  0  0  0
   -2.7163  -14.6175   13.9267 H   0  0  0  0  0  0  0  0  0  0  0  0
   -1.4137  -14.1249   15.8954 H   0  0  0  0  0  0  0  0  0  0  0  0
   -5.1278  -13.5954   16.6649 H   0  0  0  0  0  0  0  0  0  0  0  0
   -5.1873  -14.0308   14.9930 H   0  0  0  0  0  0  0  0  0  0  0  0
   -4.0027  -16.3175   15.9849 H   0  0  0  0  0  0  0  0  0  0  0  0
   -6.6513  -18.3918   15.1323 H   0  0  0  0  0  0  0  0  0  0  0  0
   -7.2090  -20.7705   15.5461 H   0  0  0  0  0  0  0  0  0  0  0  0
   -6.6102  -23.2926   19.6816 H   0  0  0  0  0  0  0  0  0  0  0  0
   -5.2815  -17.9929   19.1805 H   0  0  0  0  0  0  0  0  0  0  0  0
   -3.8187  -11.2563   15.3516 H   0  0  0  0  0  0  0  0  0  0  0  0
   -3.4441  -11.6452   17.0206 H   0  0  0  0  0  0  0  0  0  0  0  0
   -1.8093  -10.1137   13.8232 H   0  0  0  0  0  0  0  0  0  0  0  0
    0.4191   -8.8085   14.3085 H   0  0  0  0  0  0  0  0  0  0  0  0
   -1.0088  -11.0219   18.0044 H   0  0  0  0  0  0  0  0  0  0  0  0
  1  2  1  0
  2  3  1  0
  2  4  1  0
  4  5  1  0
  5  6  1  0
  6  7  2  0
  6  8  1  0
  8  9  2  0
  9 10  1  0
 10 11  2  0
 11 12  1  0
 12 13  2  0
 13 14  1  0
 14 15  1  0
 15 16  2  0
  2 17  1  0
 17 18  1  0
 18 19  1  0
 19 20  2  0
 20 21  1  0
 21 22  1  0
 16  8  1  0
 22 18  2  0
 15 11  1  0
  1 23  1  0
  1 24  1  0
  1 25  1  0
  3 26  1  0
  4 27  1  0
  4 28  1  0
  5 29  1  0
  9 30  1  0
 10 31  1  0
 13 32  1  0
 16 33  1  0
 17 34  1  0
 17 35  1  0
 19 36  1  0
 20 37  1  0
 22 38  1  0
M  END
>  <Energy>  (967) 
107.6650575963739

>  <compound_id>  (967) 
12331

>  <target_id>  (967) 
1

>  <reference_id>  (967) 
20

>  <inspiration_ids>  (967) 
[68, 20]

>  <energy_score>  (967) 
-39.2565048936284

>  <distance_score>  (967) 
17.506699849022223

>  <path>  (967) 
/opt/xchem-fragalysis-2/maxwin/BulkDock/SCRATCH/511015/C12331-P20/C12331-P20.minimised.mol

>  <scratch_subdir>  (967) 
/opt/xchem-fragalysis-2/maxwin/BulkDock/SCRATCH/511015/C12331-P20

>  <fragmenstein_runtime>  (967) 
12.917445421218872

>  <fragmenstein_outcome>  (967) 
too moved

>  <fragmenstein_mode>  (967) 
expansion

>  <fragmenstein_error>  (967) 


$$$$
C12332-P68
     RDKit          3D

 37 40  0  0  0  0  0  0  0  0999 V2000
    0.6199  -20.9689   20.1595 C   0  0  0  0  0  0  0  0  0  0  0  0
    0.6472  -20.7724   18.5921 C   0  0  0  0  0  0  0  0  0  0  0  0
    1.9699  -20.0368   18.0215 N   0  0  0  0  0  0  0  0  0  0  0  0
    2.6757  -18.5849   17.2358 C   0  0  0  0  0  0  0  0  0  0  0  0
    3.1556  -16.8025   17.6444 C   0  0  0  0  0  0  0  0  0  0  0  0
    4.2879  -16.1029   18.0233 N   0  0  0  0  0  0  0  0  0  0  0  0
    3.8982  -14.6347   18.5042 C   0  0  0  0  0  0  0  0  0  0  0  0
    4.7721  -13.4314   19.6322 C   0  0  0  0  0  0  0  0  0  0  0  0
    5.7809  -12.3667   19.5065 C   0  0  0  0  0  0  0  0  0  0  0  0
    6.4998  -11.5609   20.4084 C   0  0  0  0  0  0  0  0  0  0  0  0
    5.4873  -11.2170   21.6508 S   0  0  0  0  0  0  0  0  0  0  0  0
    4.4450  -12.9408   20.8901 C   0  0  0  0  0  0  0  0  0  0  0  0
    2.5735  -14.6409   18.2672 N   0  0  0  0  0  0  0  0  0  0  0  0
    2.1306  -15.9148   17.8673 O   0  0  0  0  0  0  0  0  0  0  0  0
    0.2507  -22.3518   18.2647 C   0  0  0  0  0  0  0  0  0  0  0  0
    1.1713  -23.3944   18.4620 C   0  0  0  0  0  0  0  0  0  0  0  0
    0.7698  -24.7498   18.6777 C   0  0  0  0  0  0  0  0  0  0  0  0
   -0.5906  -25.1285   18.7193 C   0  0  0  0  0  0  0  0  0  0  0  0
   -1.0986  -26.4031   18.9874 N   0  0  0  0  0  0  0  0  0  0  0  0
   -2.4103  -26.3672   18.9500 C   0  0  0  0  0  0  0  0  0  0  0  0
   -3.1114  -24.8383   18.6072 S   0  0  0  0  0  0  0  0  0  0  0  0
   -1.5317  -24.1213   18.4898 C   0  0  0  0  0  0  0  0  0  0  0  0
   -1.1340  -22.7546   18.2520 C   0  0  0  0  0  0  0  0  0  0  0  0
    1.4997  -21.5307   20.4950 H   0  0  0  0  0  0  0  0  0  0  0  0
    0.6075  -20.0470   20.7321 H   0  0  0  0  0  0  0  0  0  0  0  0
   -0.2728  -21.5074   20.5018 H   0  0  0  0  0  0  0  0  0  0  0  0
   -0.2199  -20.1817   18.3001 H   0  0  0  0  0  0  0  0  0  0  0  0
    2.7734  -20.5457   18.4090 H   0  0  0  0  0  0  0  0  0  0  0  0
    3.6833  -18.9777   17.0565 H   0  0  0  0  0  0  0  0  0  0  0  0
    2.3534  -18.6144   16.1921 H   0  0  0  0  0  0  0  0  0  0  0  0
    5.8914  -11.8087   18.6133 H   0  0  0  0  0  0  0  0  0  0  0  0
    7.2972  -10.8634   20.1877 H   0  0  0  0  0  0  0  0  0  0  0  0
    3.6262  -13.1467   21.5453 H   0  0  0  0  0  0  0  0  0  0  0  0
    2.2312  -23.1540   18.5500 H   0  0  0  0  0  0  0  0  0  0  0  0
    1.5289  -25.5047   18.8645 H   0  0  0  0  0  0  0  0  0  0  0  0
   -3.0195  -27.2448   19.1214 H   0  0  0  0  0  0  0  0  0  0  0  0
   -1.9096  -21.9966   18.1645 H   0  0  0  0  0  0  0  0  0  0  0  0
  1  2  1  0
  2  3  1  0
  3  4  1  0
  4  5  1  0
  5  6  2  0
  6  7  1  0
  7  8  1  0
  8  9  1  0
  9 10  2  0
 10 11  1  0
 11 12  1  0
  7 13  2  0
 13 14  1  0
  2 15  1  0
 15 16  2  0
 16 17  1  0
 17 18  2  0
 18 19  1  0
 19 20  2  0
 20 21  1  0
 21 22  1  0
 22 23  2  0
 14  5  1  0
 23 15  1  0
 12  8  2  0
 22 18  1  0
  1 24  1  0
  1 25  1  0
  1 26  1  0
  2 27  1  0
  3 28  1  0
  4 29  1  0
  4 30  1  0
  9 31  1  0
 10 32  1  0
 12 33  1  0
 16 34  1  0
 17 35  1  0
 20 36  1  0
 23 37  1  0
M  END
>  <Energy>  (968) 
388.8775890570231

>  <compound_id>  (968) 
12332

>  <target_id>  (968) 
1

>  <reference_id>  (968) 
68

>  <inspiration_ids>  (968) 
[68, 20]

>  <energy_score>  (968) 
227.113014238309

>  <distance_score>  (968) 
15.340381631306553

>  <path>  (968) 
/opt/xchem-fragalysis-2/maxwin/BulkDock/SCRATCH/511015/C12332-P68/C12332-P68.minimised.mol

>  <scratch_subdir>  (968) 
/opt/xchem-fragalysis-2/maxwin/BulkDock/SCRATCH/511015/C12332-P68

>  <fragmenstein_runtime>  (968) 
12.215527772903442

>  <fragmenstein_outcome>  (968) 
too moved

>  <fragmenstein_mode>  (968) 
expansion

>  <fragmenstein_error>  (968) 


$$$$
C12332-P20
     RDKit          3D

 37 40  0  0  0  0  0  0  0  0999 V2000
   -4.1665  -25.8698   18.3349 C   0  0  0  0  0  0  0  0  0  0  0  0
   -2.8295  -26.6246   18.4654 C   0  0  0  0  0  0  0  0  0  0  0  0
   -1.6707  -25.6374   18.7170 N   0  0  0  0  0  0  0  0  0  0  0  0
   -1.0569  -25.0011   17.4093 C   0  0  0  0  0  0  0  0  0  0  0  0
   -0.0026  -23.7489   17.3632 C   0  0  0  0  0  0  0  0  0  0  0  0
    1.1830  -23.5822   16.7345 N   0  0  0  0  0  0  0  0  0  0  0  0
    1.4180  -22.1791   16.7568 C   0  0  0  0  0  0  0  0  0  0  0  0
    2.5992  -21.4554   16.1144 C   0  0  0  0  0  0  0  0  0  0  0  0
    3.8534  -22.0677   15.7830 C   0  0  0  0  0  0  0  0  0  0  0  0
    4.7353  -21.2251   15.1257 C   0  0  0  0  0  0  0  0  0  0  0  0
    4.0390  -19.7049   14.8097 S   0  0  0  0  0  0  0  0  0  0  0  0
    2.6587  -20.1120   15.7658 C   0  0  0  0  0  0  0  0  0  0  0  0
    0.4010  -21.5224   17.3308 N   0  0  0  0  0  0  0  0  0  0  0  0
   -0.5135  -22.5247   17.7282 O   0  0  0  0  0  0  0  0  0  0  0  0
   -3.1176  -27.7553   19.5175 C   0  0  0  0  0  0  0  0  0  0  0  0
   -3.0830  -27.5351   20.8987 C   0  0  0  0  0  0  0  0  0  0  0  0
   -3.5175  -28.5167   21.8228 C   0  0  0  0  0  0  0  0  0  0  0  0
   -4.0194  -29.7607   21.3834 C   0  0  0  0  0  0  0  0  0  0  0  0
   -4.4734  -30.7973   22.1885 N   0  0  0  0  0  0  0  0  0  0  0  0
   -4.8979  -31.7858   21.4338 C   0  0  0  0  0  0  0  0  0  0  0  0
   -4.7439  -31.5623   19.7397 S   0  0  0  0  0  0  0  0  0  0  0  0
   -4.0726  -29.9890   20.0077 C   0  0  0  0  0  0  0  0  0  0  0  0
   -3.6300  -29.0103   19.0748 C   0  0  0  0  0  0  0  0  0  0  0  0
   -4.9898  -26.5473   18.0802 H   0  0  0  0  0  0  0  0  0  0  0  0
   -4.4305  -25.3553   19.2662 H   0  0  0  0  0  0  0  0  0  0  0  0
   -4.1122  -25.1155   17.5429 H   0  0  0  0  0  0  0  0  0  0  0  0
   -2.5983  -27.1333   17.5210 H   0  0  0  0  0  0  0  0  0  0  0  0
   -0.9070  -26.1710   19.1344 H   0  0  0  0  0  0  0  0  0  0  0  0
   -1.9037  -24.6580   16.8029 H   0  0  0  0  0  0  0  0  0  0  0  0
   -0.5644  -25.8179   16.8676 H   0  0  0  0  0  0  0  0  0  0  0  0
    4.0767  -23.1045   16.0027 H   0  0  0  0  0  0  0  0  0  0  0  0
    5.7218  -21.4678   14.7579 H   0  0  0  0  0  0  0  0  0  0  0  0
    1.9139  -19.3546   15.9420 H   0  0  0  0  0  0  0  0  0  0  0  0
   -2.7421  -26.5731   21.2802 H   0  0  0  0  0  0  0  0  0  0  0  0
   -3.4818  -28.3119   22.8887 H   0  0  0  0  0  0  0  0  0  0  0  0
   -5.3156  -32.6915   21.8555 H   0  0  0  0  0  0  0  0  0  0  0  0
   -3.7230  -29.2163   18.0108 H   0  0  0  0  0  0  0  0  0  0  0  0
  1  2  1  0
  2  3  1  0
  3  4  1  0
  4  5  1  0
  5  6  2  0
  6  7  1  0
  7  8  1  0
  8  9  1  0
  9 10  2  0
 10 11  1  0
 11 12  1  0
  7 13  2  0
 13 14  1  0
  2 15  1  0
 15 16  2  0
 16 17  1  0
 17 18  2  0
 18 19  1  0
 19 20  2  0
 20 21  1  0
 21 22  1  0
 22 23  2  0
 14  5  1  0
 23 15  1  0
 12  8  2  0
 22 18  1  0
  1 24  1  0
  1 25  1  0
  1 26  1  0
  2 27  1  0
  3 28  1  0
  4 29  1  0
  4 30  1  0
  9 31  1  0
 10 32  1  0
 12 33  1  0
 16 34  1  0
 17 35  1  0
 20 36  1  0
 23 37  1  0
M  END
>  <Energy>  (969) 
87.22077823383087

>  <compound_id>  (969) 
12332

>  <target_id>  (969) 
1

>  <reference_id>  (969) 
20

>  <inspiration_ids>  (969) 
[68, 20]

>  <energy_score>  (969) 
-74.54379658488403

>  <distance_score>  (969) 
15.64337486507799

>  <path>  (969) 
/opt/xchem-fragalysis-2/maxwin/BulkDock/SCRATCH/511015/C12332-P20/C12332-P20.minimised.mol

>  <scratch_subdir>  (969) 
/opt/xchem-fragalysis-2/maxwin/BulkDock/SCRATCH/511015/C12332-P20

>  <fragmenstein_runtime>  (969) 
11.955639123916626

>  <fragmenstein_outcome>  (969) 
too moved

>  <fragmenstein_mode>  (969) 
expansion

>  <fragmenstein_error>  (969) 


$$$$
C23917-P93
     RDKit          3D

 42 44  0  0  0  0  0  0  0  0999 V2000
    8.1278   -1.8377   26.2661 C   0  0  0  0  0  0  0  0  0  0  0  0
    7.0204   -1.4140   27.3242 C   0  0  0  0  0  0  0  0  0  0  0  0
    5.7986   -2.3852   27.8747 O   0  0  0  0  0  0  0  0  0  0  0  0
    5.5291   -3.0228   29.1861 C   0  0  0  0  0  0  0  0  0  0  0  0
    6.6340   -3.1975   30.0278 C   0  0  0  0  0  0  0  0  0  0  0  0
    6.5364   -3.9015   31.2548 C   0  0  0  0  0  0  0  0  0  0  0  0
    5.3778   -4.5213   31.7180 C   0  0  0  0  0  0  0  0  0  0  0  0
    4.2669   -4.4001   30.9109 C   0  0  0  0  0  0  0  0  0  0  0  0
    3.0476   -4.9725   31.1368 N   0  0  0  0  0  0  0  0  0  0  0  0
    2.2256   -4.6519   30.1222 C   0  0  0  0  0  0  0  0  0  0  0  0
    2.8528   -3.6810   29.3489 C   0  0  0  0  0  0  0  0  0  0  0  0
    2.0970   -2.7993   28.3984 C   0  0  0  0  0  0  0  0  0  0  0  0
    0.6643   -2.7384   28.9616 C   0  0  0  0  0  0  0  0  0  0  0  0
   -0.2713   -3.1530   28.3916 O   0  0  0  0  0  0  0  0  0  0  0  0
    0.7898   -2.1374   30.4051 N   0  0  0  0  0  0  0  0  0  0  0  0
   -0.1881   -2.0189   31.4565 C   0  0  0  0  0  0  0  0  0  0  0  0
   -1.6028   -1.7701   30.9572 C   0  0  0  0  0  0  0  0  0  0  0  0
   -1.6227   -0.6871   29.9301 C   0  0  0  0  0  0  0  0  0  0  0  0
   -1.9397   -0.7577   28.5882 C   0  0  0  0  0  0  0  0  0  0  0  0
   -1.6716    0.4798   27.9526 C   0  0  0  0  0  0  0  0  0  0  0  0
   -1.2069    1.4592   28.7212 N   0  0  0  0  0  0  0  0  0  0  0  0
   -1.0645    0.8890   30.2676 S   0  0  0  0  0  0  0  0  0  0  0  0
    4.2549   -3.6407   29.7042 C   0  0  0  0  0  0  0  0  0  0  0  0
    8.6323   -0.9682   25.8427 H   0  0  0  0  0  0  0  0  0  0  0  0
    7.6901   -2.4811   25.5276 H   0  0  0  0  0  0  0  0  0  0  0  0
    8.8752   -2.4446   26.7887 H   0  0  0  0  0  0  0  0  0  0  0  0
    7.4980   -1.0579   28.2416 H   0  0  0  0  0  0  0  0  0  0  0  0
    6.4331   -0.5867   26.9189 H   0  0  0  0  0  0  0  0  0  0  0  0
    7.6033   -2.8059   29.7333 H   0  0  0  0  0  0  0  0  0  0  0  0
    7.4411   -3.9840   31.8589 H   0  0  0  0  0  0  0  0  0  0  0  0
    5.3691   -5.0736   32.6511 H   0  0  0  0  0  0  0  0  0  0  0  0
    2.8062   -5.5765   31.9154 H   0  0  0  0  0  0  0  0  0  0  0  0
    1.2105   -5.0332   30.1095 H   0  0  0  0  0  0  0  0  0  0  0  0
    2.5152   -1.7896   28.3505 H   0  0  0  0  0  0  0  0  0  0  0  0
    2.0753   -3.2282   27.3940 H   0  0  0  0  0  0  0  0  0  0  0  0
    1.7360   -1.7982   30.5512 H   0  0  0  0  0  0  0  0  0  0  0  0
   -0.1574   -2.9478   32.0357 H   0  0  0  0  0  0  0  0  0  0  0  0
    0.1493   -1.2133   32.1176 H   0  0  0  0  0  0  0  0  0  0  0  0
   -2.2593   -1.5133   31.7966 H   0  0  0  0  0  0  0  0  0  0  0  0
   -2.0039   -2.6918   30.5181 H   0  0  0  0  0  0  0  0  0  0  0  0
   -2.2897   -1.6508   28.0852 H   0  0  0  0  0  0  0  0  0  0  0  0
   -1.8133    0.6973   26.9029 H   0  0  0  0  0  0  0  0  0  0  0  0
  1  2  1  0
  2  3  1  0
  3  4  1  0
  4  5  2  0
  5  6  1  0
  6  7  2  0
  7  8  1  0
  8  9  1  0
  9 10  1  0
 10 11  2  0
 11 12  1  0
 12 13  1  0
 13 14  2  0
 13 15  1  0
 15 16  1  0
 16 17  1  0
 17 18  1  0
 18 19  2  0
 19 20  1  0
 20 21  2  0
 21 22  1  0
 11 23  1  0
 23  4  1  0
 23  8  2  0
 22 18  1  0
  1 24  1  0
  1 25  1  0
  1 26  1  0
  2 27  1  0
  2 28  1  0
  5 29  1  0
  6 30  1  0
  7 31  1  0
  9 32  1  0
 10 33  1  0
 12 34  1  0
 12 35  1  0
 15 36  1  0
 16 37  1  0
 16 38  1  0
 17 39  1  0
 17 40  1  0
 19 41  1  0
 20 42  1  0
M  END
>  <Energy>  (970) 
122.33484927307319

>  <compound_id>  (970) 
23917

>  <target_id>  (970) 
1

>  <reference_id>  (970) 
93

>  <inspiration_ids>  (970) 
[93, 186]

>  <energy_score>  (970) 
35.31522705201621

>  <distance_score>  (970) 
6.386667929329049

>  <path>  (970) 
/opt/xchem-fragalysis-2/maxwin/BulkDock/SCRATCH/511015/C23917-P93/C23917-P93.minimised.mol

>  <scratch_subdir>  (970) 
/opt/xchem-fragalysis-2/maxwin/BulkDock/SCRATCH/511015/C23917-P93

>  <fragmenstein_runtime>  (970) 
7.2546045780181885

>  <fragmenstein_outcome>  (970) 
too moved

>  <fragmenstein_mode>  (970) 
expansion

>  <fragmenstein_error>  (970) 


$$$$
C23917-P186
     RDKit          3D

 42 44  0  0  0  0  0  0  0  0999 V2000
    8.0590   -2.0155   26.3711 C   0  0  0  0  0  0  0  0  0  0  0  0
    6.6106   -2.6393   26.2729 C   0  0  0  0  0  0  0  0  0  0  0  0
    5.8986   -2.8671   27.6609 O   0  0  0  0  0  0  0  0  0  0  0  0
    4.8811   -3.8345   28.0117 C   0  0  0  0  0  0  0  0  0  0  0  0
    4.5192   -4.9173   27.2153 C   0  0  0  0  0  0  0  0  0  0  0  0
    3.5321   -5.8512   27.6531 C   0  0  0  0  0  0  0  0  0  0  0  0
    2.9253   -5.8311   28.9183 C   0  0  0  0  0  0  0  0  0  0  0  0
    3.3566   -4.8260   29.7609 C   0  0  0  0  0  0  0  0  0  0  0  0
    3.0845   -4.5648   31.0877 N   0  0  0  0  0  0  0  0  0  0  0  0
    3.4472   -3.2765   31.3876 C   0  0  0  0  0  0  0  0  0  0  0  0
    3.8086   -2.7339   30.1674 C   0  0  0  0  0  0  0  0  0  0  0  0
    3.4401   -1.3660   29.6464 C   0  0  0  0  0  0  0  0  0  0  0  0
    2.2192   -1.5399   28.6668 C   0  0  0  0  0  0  0  0  0  0  0  0
    2.1965   -1.0841   27.5886 O   0  0  0  0  0  0  0  0  0  0  0  0
    1.1837   -2.4540   29.4023 N   0  0  0  0  0  0  0  0  0  0  0  0
   -0.0323   -3.0623   28.9243 C   0  0  0  0  0  0  0  0  0  0  0  0
   -1.1858   -2.6674   29.8580 C   0  0  0  0  0  0  0  0  0  0  0  0
   -1.2375   -1.1857   29.8871 C   0  0  0  0  0  0  0  0  0  0  0  0
   -1.3361   -0.3339   28.8084 C   0  0  0  0  0  0  0  0  0  0  0  0
   -0.9183    0.9605   29.1906 C   0  0  0  0  0  0  0  0  0  0  0  0
   -0.6451    1.1432   30.4795 N   0  0  0  0  0  0  0  0  0  0  0  0
   -0.8745   -0.2815   31.2800 S   0  0  0  0  0  0  0  0  0  0  0  0
    4.1997   -3.7989   29.2990 C   0  0  0  0  0  0  0  0  0  0  0  0
    8.6299   -2.6232   27.0832 H   0  0  0  0  0  0  0  0  0  0  0  0
    8.6354   -1.9698   25.4634 H   0  0  0  0  0  0  0  0  0  0  0  0
    7.9893   -1.0250   26.8315 H   0  0  0  0  0  0  0  0  0  0  0  0
    6.6518   -3.6305   25.8190 H   0  0  0  0  0  0  0  0  0  0  0  0
    5.9161   -1.9745   25.7524 H   0  0  0  0  0  0  0  0  0  0  0  0
    4.9551   -5.0409   26.2286 H   0  0  0  0  0  0  0  0  0  0  0  0
    3.2338   -6.6220   26.9414 H   0  0  0  0  0  0  0  0  0  0  0  0
    2.1402   -6.5228   29.1794 H   0  0  0  0  0  0  0  0  0  0  0  0
    2.5673   -5.1761   31.7036 H   0  0  0  0  0  0  0  0  0  0  0  0
    3.1338   -2.8208   32.3183 H   0  0  0  0  0  0  0  0  0  0  0  0
    4.2764   -0.9206   29.0986 H   0  0  0  0  0  0  0  0  0  0  0  0
    3.1425   -0.6901   30.4544 H   0  0  0  0  0  0  0  0  0  0  0  0
    1.5534   -2.7310   30.2932 H   0  0  0  0  0  0  0  0  0  0  0  0
    0.1085   -4.1461   28.9444 H   0  0  0  0  0  0  0  0  0  0  0  0
   -0.1988   -2.7540   27.8872 H   0  0  0  0  0  0  0  0  0  0  0  0
   -2.1218   -3.0640   29.4681 H   0  0  0  0  0  0  0  0  0  0  0  0
   -1.0306   -3.0900   30.8575 H   0  0  0  0  0  0  0  0  0  0  0  0
   -1.5322   -0.6524   27.7949 H   0  0  0  0  0  0  0  0  0  0  0  0
   -0.7824    1.8113   28.5365 H   0  0  0  0  0  0  0  0  0  0  0  0
  1  2  1  0
  2  3  1  0
  3  4  1  0
  4  5  2  0
  5  6  1  0
  6  7  2  0
  7  8  1  0
  8  9  1  0
  9 10  1  0
 10 11  2  0
 11 12  1  0
 12 13  1  0
 13 14  2  0
 13 15  1  0
 15 16  1  0
 16 17  1  0
 17 18  1  0
 18 19  2  0
 19 20  1  0
 20 21  2  0
 21 22  1  0
 11 23  1  0
 23  4  1  0
 23  8  2  0
 22 18  1  0
  1 24  1  0
  1 25  1  0
  1 26  1  0
  2 27  1  0
  2 28  1  0
  5 29  1  0
  6 30  1  0
  7 31  1  0
  9 32  1  0
 10 33  1  0
 12 34  1  0
 12 35  1  0
 15 36  1  0
 16 37  1  0
 16 38  1  0
 17 39  1  0
 17 40  1  0
 19 41  1  0
 20 42  1  0
M  END
>  <Energy>  (971) 
115.76414502540219

>  <compound_id>  (971) 
23917

>  <target_id>  (971) 
1

>  <reference_id>  (971) 
186

>  <inspiration_ids>  (971) 
[93, 186]

>  <energy_score>  (971) 
28.74452280434508

>  <distance_score>  (971) 
6.438160709250192

>  <path>  (971) 
/opt/xchem-fragalysis-2/maxwin/BulkDock/SCRATCH/511015/C23917-P186/C23917-P186.minimised.mol

>  <scratch_subdir>  (971) 
/opt/xchem-fragalysis-2/maxwin/BulkDock/SCRATCH/511015/C23917-P186

>  <fragmenstein_runtime>  (971) 
6.686107397079468

>  <fragmenstein_outcome>  (971) 
too moved

>  <fragmenstein_mode>  (971) 
expansion

>  <fragmenstein_error>  (971) 


$$$$
C21687-P44
     RDKit          3D

 51 52  0  0  0  0  0  0  0  0999 V2000
  -20.4707  -18.6430   10.8206 C   0  0  0  0  0  0  0  0  0  0  0  0
  -19.7763  -19.9670   11.0788 C   0  0  0  0  0  0  0  0  0  0  0  0
  -18.4752  -19.7416   11.6354 O   0  0  0  0  0  0  0  0  0  0  0  0
  -18.4272  -19.6070   12.9866 C   0  0  0  0  0  0  0  0  0  0  0  0
  -19.3877  -19.6740   13.7408 O   0  0  0  0  0  0  0  0  0  0  0  0
  -17.1348  -19.3763   13.3940 N   0  0  0  0  0  0  0  0  0  0  0  0
  -16.2974  -20.6011   13.7279 C   0  0  0  0  0  0  0  0  0  0  0  0
  -14.6741  -20.3364   14.3003 C   0  0  0  0  0  0  0  0  0  0  0  0
  -14.2553  -18.6047   14.8523 C   0  0  0  0  0  0  0  0  0  0  0  0
  -12.9680  -17.8246   15.7556 C   0  0  0  0  0  0  0  0  0  0  0  0
  -11.4562  -18.1922   14.5156 C   0  0  0  0  0  0  0  0  0  0  0  0
  -13.1389  -16.4398   16.2322 N   0  0  0  0  0  0  0  0  0  0  0  0
  -13.0088  -15.8695   17.5617 C   0  0  0  0  0  0  0  0  0  0  0  0
  -12.8076  -16.3950   18.6210 O   0  0  0  0  0  0  0  0  0  0  0  0
  -13.1682  -14.3319   17.5539 C   0  0  0  0  0  0  0  0  0  0  0  0
  -11.9332  -13.4416   17.8834 C   0  0  0  0  0  0  0  0  0  0  0  0
  -11.0503  -13.1560   16.6713 C   0  0  0  0  0  0  0  0  0  0  0  0
   -9.6096  -13.3842   17.1344 C   0  0  0  0  0  0  0  0  0  0  0  0
   -9.7142  -13.2398   18.6189 C   0  0  0  0  0  0  0  0  0  0  0  0
  -10.9974  -13.8823   18.9198 N   0  0  0  0  0  0  0  0  0  0  0  0
  -15.5579  -17.4532   14.4816 C   0  0  0  0  0  0  0  0  0  0  0  0
  -16.6847  -17.9390   13.4665 C   0  0  0  0  0  0  0  0  0  0  0  0
  -21.4405  -18.8007   10.3404 H   0  0  0  0  0  0  0  0  0  0  0  0
  -19.8562  -18.0062   10.1758 H   0  0  0  0  0  0  0  0  0  0  0  0
  -20.6280  -18.0931   11.7539 H   0  0  0  0  0  0  0  0  0  0  0  0
  -19.6314  -20.4965   10.1313 H   0  0  0  0  0  0  0  0  0  0  0  0
  -20.3798  -20.6187   11.7210 H   0  0  0  0  0  0  0  0  0  0  0  0
  -16.2776  -21.2142   12.8227 H   0  0  0  0  0  0  0  0  0  0  0  0
  -16.8875  -21.2220   14.4078 H   0  0  0  0  0  0  0  0  0  0  0  0
  -14.2005  -20.7395   15.1420 H   0  0  0  0  0  0  0  0  0  0  0  0
  -14.0680  -20.9953   13.7161 H   0  0  0  0  0  0  0  0  0  0  0  0
  -13.5348  -18.9652   14.1917 H   0  0  0  0  0  0  0  0  0  0  0  0
  -12.9422  -18.3239   16.7152 H   0  0  0  0  0  0  0  0  0  0  0  0
  -11.4670  -19.1057   13.9089 H   0  0  0  0  0  0  0  0  0  0  0  0
  -11.1302  -17.3674   13.8605 H   0  0  0  0  0  0  0  0  0  0  0  0
  -10.6776  -18.4950   15.2381 H   0  0  0  0  0  0  0  0  0  0  0  0
  -13.2228  -15.6895   15.5575 H   0  0  0  0  0  0  0  0  0  0  0  0
  -13.9342  -14.1317   18.3171 H   0  0  0  0  0  0  0  0  0  0  0  0
  -13.6151  -14.0002   16.6092 H   0  0  0  0  0  0  0  0  0  0  0  0
  -12.3518  -12.4752   18.1946 H   0  0  0  0  0  0  0  0  0  0  0  0
  -11.3134  -13.7583   15.8021 H   0  0  0  0  0  0  0  0  0  0  0  0
  -11.2455  -12.1307   16.3578 H   0  0  0  0  0  0  0  0  0  0  0  0
   -9.2635  -14.3945   16.9199 H   0  0  0  0  0  0  0  0  0  0  0  0
   -8.8761  -12.7318   16.6618 H   0  0  0  0  0  0  0  0  0  0  0  0
   -9.7153  -12.1882   18.8406 H   0  0  0  0  0  0  0  0  0  0  0  0
   -8.9100  -13.7048   19.1696 H   0  0  0  0  0  0  0  0  0  0  0  0
  -11.2993  -13.5498   19.8339 H   0  0  0  0  0  0  0  0  0  0  0  0
  -15.2297  -16.4269   14.2857 H   0  0  0  0  0  0  0  0  0  0  0  0
  -16.0639  -17.2400   15.4443 H   0  0  0  0  0  0  0  0  0  0  0  0
  -17.5816  -17.3357   13.6611 H   0  0  0  0  0  0  0  0  0  0  0  0
  -16.3878  -17.6657   12.4462 H   0  0  0  0  0  0  0  0  0  0  0  0
  1  2  1  0
  2  3  1  0
  3  4  1  0
  4  5  2  0
  4  6  1  0
  6  7  1  0
  7  8  1  0
  8  9  1  0
  9 10  1  0
 10 11  1  0
 10 12  1  0
 12 13  1  0
 13 14  2  0
 13 15  1  0
 15 16  1  0
 16 17  1  0
 17 18  1  0
 18 19  1  0
 19 20  1  0
  9 21  1  0
 21 22  1  0
 22  6  1  0
 20 16  1  0
  1 23  1  0
  1 24  1  0
  1 25  1  0
  2 26  1  0
  2 27  1  0
  7 28  1  0
  7 29  1  0
  8 30  1  0
  8 31  1  0
  9 32  1  0
 10 33  1  0
 11 34  1  0
 11 35  1  0
 11 36  1  0
 12 37  1  0
 15 38  1  0
 15 39  1  0
 16 40  1  0
 17 41  1  0
 17 42  1  0
 18 43  1  0
 18 44  1  0
 19 45  1  0
 19 46  1  0
 20 47  1  0
 21 48  1  0
 21 49  1  0
 22 50  1  0
 22 51  1  0
M  END
>  <Energy>  (972) 
197.42681139928314

>  <compound_id>  (972) 
21687

>  <target_id>  (972) 
1

>  <reference_id>  (972) 
44

>  <inspiration_ids>  (972) 
[44, 30]

>  <energy_score>  (972) 
199.0352057735666

>  <distance_score>  (972) 
14.795675048902833

>  <path>  (972) 
/opt/xchem-fragalysis-2/maxwin/BulkDock/SCRATCH/511015/C21687-P44/C21687-P44.minimised.mol

>  <scratch_subdir>  (972) 
/opt/xchem-fragalysis-2/maxwin/BulkDock/SCRATCH/511015/C21687-P44

>  <fragmenstein_runtime>  (972) 
25.231629133224487

>  <fragmenstein_outcome>  (972) 
too moved

>  <fragmenstein_mode>  (972) 
expansion

>  <fragmenstein_error>  (972) 


$$$$
C21687-P30
     RDKit          3D

 51 52  0  0  0  0  0  0  0  0999 V2000
   -9.8802  -21.9561   14.3154 C   0  0  0  0  0  0  0  0  0  0  0  0
   -9.4262  -22.0379   15.7964 C   0  0  0  0  0  0  0  0  0  0  0  0
   -9.2727  -20.6738   17.0426 O   0  0  0  0  0  0  0  0  0  0  0  0
   -9.2008  -19.9227   18.3972 C   0  0  0  0  0  0  0  0  0  0  0  0
   -9.1021  -20.5187   19.4773 O   0  0  0  0  0  0  0  0  0  0  0  0
   -9.3549  -18.5170   18.6302 N   0  0  0  0  0  0  0  0  0  0  0  0
   -8.1458  -17.8198   18.6896 C   0  0  0  0  0  0  0  0  0  0  0  0
   -8.4448  -16.7592   19.7268 C   0  0  0  0  0  0  0  0  0  0  0  0
   -9.1938  -15.5830   18.8553 C   0  0  0  0  0  0  0  0  0  0  0  0
   -8.8471  -13.8921   18.4274 C   0  0  0  0  0  0  0  0  0  0  0  0
   -8.5789  -13.6864   16.9319 C   0  0  0  0  0  0  0  0  0  0  0  0
   -7.9258  -13.0771   19.3183 N   0  0  0  0  0  0  0  0  0  0  0  0
   -6.4853  -12.4360   19.0322 C   0  0  0  0  0  0  0  0  0  0  0  0
   -5.8392  -12.3910   18.0033 O   0  0  0  0  0  0  0  0  0  0  0  0
   -5.6005  -11.7319   20.6801 C   0  0  0  0  0  0  0  0  0  0  0  0
   -4.2558  -10.4223   21.3343 C   0  0  0  0  0  0  0  0  0  0  0  0
   -3.4615   -9.8443   22.4855 C   0  0  0  0  0  0  0  0  0  0  0  0
   -3.2473   -7.9881   22.0743 C   0  0  0  0  0  0  0  0  0  0  0  0
   -4.4969   -7.3651   22.1818 C   0  0  0  0  0  0  0  0  0  0  0  0
   -4.3180   -8.7818   22.2877 N   0  0  0  0  0  0  0  0  0  0  0  0
  -10.6109  -16.0562   19.1212 C   0  0  0  0  0  0  0  0  0  0  0  0
  -10.7004  -17.6317   18.8382 C   0  0  0  0  0  0  0  0  0  0  0  0
  -10.4954  -22.8300   14.0627 H   0  0  0  0  0  0  0  0  0  0  0  0
   -9.0241  -22.1183   13.6444 H   0  0  0  0  0  0  0  0  0  0  0  0
  -10.4055  -21.0533   14.0154 H   0  0  0  0  0  0  0  0  0  0  0  0
   -9.8341  -22.9003   16.2468 H   0  0  0  0  0  0  0  0  0  0  0  0
   -8.4168  -22.4166   15.5560 H   0  0  0  0  0  0  0  0  0  0  0  0
   -7.8996  -17.4721   17.6904 H   0  0  0  0  0  0  0  0  0  0  0  0
   -7.3354  -18.4769   19.0258 H   0  0  0  0  0  0  0  0  0  0  0  0
   -9.1032  -17.1182   20.5365 H   0  0  0  0  0  0  0  0  0  0  0  0
   -7.5490  -16.6412   20.3410 H   0  0  0  0  0  0  0  0  0  0  0  0
   -8.9294  -15.8923   17.8535 H   0  0  0  0  0  0  0  0  0  0  0  0
   -9.8160  -13.4148   18.6238 H   0  0  0  0  0  0  0  0  0  0  0  0
   -7.9323  -14.4643   16.5145 H   0  0  0  0  0  0  0  0  0  0  0  0
   -9.5220  -13.6894   16.3820 H   0  0  0  0  0  0  0  0  0  0  0  0
   -8.0979  -12.7289   16.7270 H   0  0  0  0  0  0  0  0  0  0  0  0
   -8.1999  -12.8698   20.2345 H   0  0  0  0  0  0  0  0  0  0  0  0
   -6.6091  -11.3733   20.5384 H   0  0  0  0  0  0  0  0  0  0  0  0
   -6.1507  -12.1381   21.6248 H   0  0  0  0  0  0  0  0  0  0  0  0
   -3.7336  -10.2222   20.3650 H   0  0  0  0  0  0  0  0  0  0  0  0
   -3.6220  -10.6400   23.2348 H   0  0  0  0  0  0  0  0  0  0  0  0
   -3.3704   -9.6939   23.6056 H   0  0  0  0  0  0  0  0  0  0  0  0
   -3.1033   -7.7589   20.9813 H   0  0  0  0  0  0  0  0  0  0  0  0
   -2.4690   -7.5136   22.6623 H   0  0  0  0  0  0  0  0  0  0  0  0
   -4.8440   -6.9597   23.0939 H   0  0  0  0  0  0  0  0  0  0  0  0
   -4.3435   -6.4316   21.6637 H   0  0  0  0  0  0  0  0  0  0  0  0
   -4.5553   -8.8163   23.2762 H   0  0  0  0  0  0  0  0  0  0  0  0
  -10.8925  -15.8629   20.1639 H   0  0  0  0  0  0  0  0  0  0  0  0
  -11.3474  -15.5110   18.5185 H   0  0  0  0  0  0  0  0  0  0  0  0
  -11.3621  -17.5816   17.9797 H   0  0  0  0  0  0  0  0  0  0  0  0
  -11.2506  -18.1280   19.6468 H   0  0  0  0  0  0  0  0  0  0  0  0
  1  2  1  0
  2  3  1  0
  3  4  1  0
  4  5  2  0
  4  6  1  0
  6  7  1  0
  7  8  1  0
  8  9  1  0
  9 10  1  0
 10 11  1  0
 10 12  1  0
 12 13  1  0
 13 14  2  0
 13 15  1  0
 15 16  1  0
 16 17  1  0
 17 18  1  0
 18 19  1  0
 19 20  1  0
  9 21  1  0
 21 22  1  0
 22  6  1  0
 20 16  1  0
  1 23  1  0
  1 24  1  0
  1 25  1  0
  2 26  1  0
  2 27  1  0
  7 28  1  0
  7 29  1  0
  8 30  1  0
  8 31  1  0
  9 32  1  0
 10 33  1  0
 11 34  1  0
 11 35  1  0
 11 36  1  0
 12 37  1  0
 15 38  1  0
 15 39  1  0
 16 40  1  0
 17 41  1  0
 17 42  1  0
 18 43  1  0
 18 44  1  0
 19 45  1  0
 19 46  1  0
 20 47  1  0
 21 48  1  0
 21 49  1  0
 22 50  1  0
 22 51  1  0
M  END
>  <Energy>  (973) 
848.75548746134393

>  <compound_id>  (973) 
21687

>  <target_id>  (973) 
1

>  <reference_id>  (973) 
30

>  <inspiration_ids>  (973) 
[44, 30]

>  <energy_score>  (973) 
850.3638818356195

>  <distance_score>  (973) 
11.80064702462075

>  <path>  (973) 
/opt/xchem-fragalysis-2/maxwin/BulkDock/SCRATCH/511015/C21687-P30/C21687-P30.minimised.mol

>  <scratch_subdir>  (973) 
/opt/xchem-fragalysis-2/maxwin/BulkDock/SCRATCH/511015/C21687-P30

>  <fragmenstein_runtime>  (973) 
16.99140167236328

>  <fragmenstein_outcome>  (973) 
too moved

>  <fragmenstein_mode>  (973) 
expansion

>  <fragmenstein_error>  (973) 


$$$$
C21689-P44
     RDKit          3D

 54 55  0  0  0  0  0  0  0  0999 V2000
  -10.0434  -20.6208   25.0762 C   0  0  0  0  0  0  0  0  0  0  0  0
   -8.9130  -20.3944   26.0621 C   0  0  0  0  0  0  0  0  0  0  0  0
   -7.9224  -21.0602   25.9910 O   0  0  0  0  0  0  0  0  0  0  0  0
   -9.2787  -19.3526   26.9802 N   0  0  0  0  0  0  0  0  0  0  0  0
   -8.6057  -18.8472   28.1639 C   0  0  0  0  0  0  0  0  0  0  0  0
   -9.5212  -19.0201   29.3748 C   0  0  0  0  0  0  0  0  0  0  0  0
   -8.0744  -17.4121   27.9281 C   0  0  0  0  0  0  0  0  0  0  0  0
   -9.1917  -16.3645   27.7316 C   0  0  0  0  0  0  0  0  0  0  0  0
   -8.6126  -14.9526   27.5683 C   0  0  0  0  0  0  0  0  0  0  0  0
   -7.6743  -14.6197   28.6181 N   0  0  0  0  0  0  0  0  0  0  0  0
   -7.8176  -13.4625   29.3585 C   0  0  0  0  0  0  0  0  0  0  0  0
   -8.4821  -13.4675   30.3927 O   0  0  0  0  0  0  0  0  0  0  0  0
   -7.1688  -12.1979   28.7877 C   0  0  0  0  0  0  0  0  0  0  0  0
   -7.5777  -10.9904   29.6367 C   0  0  0  0  0  0  0  0  0  0  0  0
   -7.0448   -9.6894   29.2629 N   0  0  0  0  0  0  0  0  0  0  0  0
   -7.6957   -8.4185   29.0908 C   0  0  0  0  0  0  0  0  0  0  0  0
   -8.8571   -8.1219   29.1331 O   0  0  0  0  0  0  0  0  0  0  0  0
   -6.6688   -7.2573   28.9255 C   0  0  0  0  0  0  0  0  0  0  0  0
   -6.9019   -6.3892   27.7021 C   0  0  0  0  0  0  0  0  0  0  0  0
   -5.6027   -5.6217   27.5714 C   0  0  0  0  0  0  0  0  0  0  0  0
   -4.5524   -6.5239   28.2120 C   0  0  0  0  0  0  0  0  0  0  0  0
   -5.2522   -7.6864   28.7940 N   0  0  0  0  0  0  0  0  0  0  0  0
   -6.5876  -15.5494   28.8547 C   0  0  0  0  0  0  0  0  0  0  0  0
   -7.1404  -16.9596   29.0826 C   0  0  0  0  0  0  0  0  0  0  0  0
  -10.7964  -21.2673   25.5348 H   0  0  0  0  0  0  0  0  0  0  0  0
  -10.5049  -19.6780   24.7703 H   0  0  0  0  0  0  0  0  0  0  0  0
   -9.6491  -21.1071   24.1787 H   0  0  0  0  0  0  0  0  0  0  0  0
  -10.2328  -19.0654   26.7912 H   0  0  0  0  0  0  0  0  0  0  0  0
   -7.7358  -19.4996   28.3141 H   0  0  0  0  0  0  0  0  0  0  0  0
   -9.0329  -18.7120   30.3030 H   0  0  0  0  0  0  0  0  0  0  0  0
   -9.8034  -20.0734   29.4889 H   0  0  0  0  0  0  0  0  0  0  0  0
  -10.4519  -18.4541   29.2659 H   0  0  0  0  0  0  0  0  0  0  0  0
   -7.4536  -17.4260   27.0228 H   0  0  0  0  0  0  0  0  0  0  0  0
   -9.8431  -16.3567   28.6139 H   0  0  0  0  0  0  0  0  0  0  0  0
   -9.8264  -16.6037   26.8734 H   0  0  0  0  0  0  0  0  0  0  0  0
   -8.0756  -14.8830   26.6170 H   0  0  0  0  0  0  0  0  0  0  0  0
   -9.4201  -14.2152   27.5770 H   0  0  0  0  0  0  0  0  0  0  0  0
   -6.0811  -12.3229   28.7985 H   0  0  0  0  0  0  0  0  0  0  0  0
   -7.4919  -12.0598   27.7508 H   0  0  0  0  0  0  0  0  0  0  0  0
   -8.6704  -10.8967   29.6476 H   0  0  0  0  0  0  0  0  0  0  0  0
   -7.2661  -11.1468   30.6764 H   0  0  0  0  0  0  0  0  0  0  0  0
   -6.0373   -9.5504   29.2417 H   0  0  0  0  0  0  0  0  0  0  0  0
   -6.7518   -6.6452   29.8349 H   0  0  0  0  0  0  0  0  0  0  0  0
   -7.0794   -7.0056   26.8127 H   0  0  0  0  0  0  0  0  0  0  0  0
   -7.7613   -5.7215   27.8196 H   0  0  0  0  0  0  0  0  0  0  0  0
   -5.6741   -4.6761   28.1216 H   0  0  0  0  0  0  0  0  0  0  0  0
   -5.3787   -5.3960   26.5244 H   0  0  0  0  0  0  0  0  0  0  0  0
   -4.0165   -5.9888   29.0029 H   0  0  0  0  0  0  0  0  0  0  0  0
   -3.8203   -6.8713   27.4766 H   0  0  0  0  0  0  0  0  0  0  0  0
   -4.8738   -7.8529   29.7278 H   0  0  0  0  0  0  0  0  0  0  0  0
   -6.0007  -15.2206   29.7191 H   0  0  0  0  0  0  0  0  0  0  0  0
   -5.9362  -15.5411   27.9765 H   0  0  0  0  0  0  0  0  0  0  0  0
   -6.3064  -17.6631   29.1874 H   0  0  0  0  0  0  0  0  0  0  0  0
   -7.6900  -16.9630   30.0311 H   0  0  0  0  0  0  0  0  0  0  0  0
  1  2  1  0
  2  3  2  0
  2  4  1  0
  4  5  1  0
  5  6  1  0
  5  7  1  0
  7  8  1  0
  8  9  1  0
  9 10  1  0
 10 11  1  0
 11 12  2  0
 11 13  1  0
 13 14  1  0
 14 15  1  0
 15 16  1  0
 16 17  2  0
 16 18  1  0
 18 19  1  0
 19 20  1  0
 20 21  1  0
 21 22  1  0
 10 23  1  0
 23 24  1  0
 24  7  1  0
 22 18  1  0
  1 25  1  0
  1 26  1  0
  1 27  1  0
  4 28  1  0
  5 29  1  0
  6 30  1  0
  6 31  1  0
  6 32  1  0
  7 33  1  0
  8 34  1  0
  8 35  1  0
  9 36  1  0
  9 37  1  0
 13 38  1  0
 13 39  1  0
 14 40  1  0
 14 41  1  0
 15 42  1  0
 18 43  1  0
 19 44  1  0
 19 45  1  0
 20 46  1  0
 20 47  1  0
 21 48  1  0
 21 49  1  0
 22 50  1  0
 23 51  1  0
 23 52  1  0
 24 53  1  0
 24 54  1  0
M  END
>  <Energy>  (974) 
24.762699585503448

>  <compound_id>  (974) 
21689

>  <target_id>  (974) 
1

>  <reference_id>  (974) 
44

>  <inspiration_ids>  (974) 
[44, 30]

>  <energy_score>  (974) 
-20.680592458710407

>  <distance_score>  (974) 
15.387669613908898

>  <path>  (974) 
/opt/xchem-fragalysis-2/maxwin/BulkDock/SCRATCH/511015/C21689-P44/C21689-P44.minimised.mol

>  <scratch_subdir>  (974) 
/opt/xchem-fragalysis-2/maxwin/BulkDock/SCRATCH/511015/C21689-P44

>  <fragmenstein_runtime>  (974) 
25.349059343338013

>  <fragmenstein_outcome>  (974) 
too moved

>  <fragmenstein_mode>  (974) 
expansion

>  <fragmenstein_error>  (974) 


$$$$
C21689-P30
     RDKit          3D

 54 55  0  0  0  0  0  0  0  0999 V2000
  -13.9567  -22.7105   26.2295 C   0  0  0  0  0  0  0  0  0  0  0  0
  -13.4100  -23.0920   24.8690 C   0  0  0  0  0  0  0  0  0  0  0  0
  -12.3184  -23.5718   24.7728 O   0  0  0  0  0  0  0  0  0  0  0  0
  -14.3820  -22.7619   23.8632 N   0  0  0  0  0  0  0  0  0  0  0  0
  -14.3851  -22.9931   22.4274 C   0  0  0  0  0  0  0  0  0  0  0  0
  -13.9198  -24.4054   22.1035 C   0  0  0  0  0  0  0  0  0  0  0  0
  -13.6399  -21.8688   21.6694 C   0  0  0  0  0  0  0  0  0  0  0  0
  -12.1612  -21.7814   21.8988 C   0  0  0  0  0  0  0  0  0  0  0  0
  -11.6626  -20.4684   21.3008 C   0  0  0  0  0  0  0  0  0  0  0  0
  -11.8947  -20.2132   19.7922 N   0  0  0  0  0  0  0  0  0  0  0  0
  -10.5193  -19.3280   18.7196 C   0  0  0  0  0  0  0  0  0  0  0  0
   -9.5455  -19.8274   18.0665 O   0  0  0  0  0  0  0  0  0  0  0  0
  -11.2066  -17.3274   18.8268 C   0  0  0  0  0  0  0  0  0  0  0  0
   -9.9904  -15.5152   19.1210 C   0  0  0  0  0  0  0  0  0  0  0  0
  -10.2104  -13.6267   19.8144 N   0  0  0  0  0  0  0  0  0  0  0  0
  -10.8905  -12.9593   21.5713 C   0  0  0  0  0  0  0  0  0  0  0  0
  -11.2809  -13.8349   22.2173 O   0  0  0  0  0  0  0  0  0  0  0  0
  -11.0665  -11.3239   22.6361 C   0  0  0  0  0  0  0  0  0  0  0  0
  -12.3230  -10.1597   22.7301 C   0  0  0  0  0  0  0  0  0  0  0  0
  -12.4610   -9.5156   24.0815 C   0  0  0  0  0  0  0  0  0  0  0  0
  -12.2481  -10.6983   24.9422 C   0  0  0  0  0  0  0  0  0  0  0  0
  -11.3767  -11.6106   24.2070 N   0  0  0  0  0  0  0  0  0  0  0  0
  -13.2135  -20.7208   19.4023 C   0  0  0  0  0  0  0  0  0  0  0  0
  -13.7589  -21.9714   20.1644 C   0  0  0  0  0  0  0  0  0  0  0  0
  -14.8497  -23.3017   26.4510 H   0  0  0  0  0  0  0  0  0  0  0  0
  -14.1966  -21.6436   26.2517 H   0  0  0  0  0  0  0  0  0  0  0  0
  -13.2040  -22.9132   26.9972 H   0  0  0  0  0  0  0  0  0  0  0  0
  -15.2333  -22.4463   24.3167 H   0  0  0  0  0  0  0  0  0  0  0  0
  -15.4445  -22.9311   22.1456 H   0  0  0  0  0  0  0  0  0  0  0  0
  -12.8639  -24.5384   22.3522 H   0  0  0  0  0  0  0  0  0  0  0  0
  -14.4872  -25.1437   22.6813 H   0  0  0  0  0  0  0  0  0  0  0  0
  -14.0631  -24.6381   21.0446 H   0  0  0  0  0  0  0  0  0  0  0  0
  -14.1088  -20.9273   21.9928 H   0  0  0  0  0  0  0  0  0  0  0  0
  -11.9271  -21.7658   22.9672 H   0  0  0  0  0  0  0  0  0  0  0  0
  -11.6238  -22.6345   21.4720 H   0  0  0  0  0  0  0  0  0  0  0  0
  -12.1467  -19.6808   21.8664 H   0  0  0  0  0  0  0  0  0  0  0  0
  -10.6004  -20.5878   21.4871 H   0  0  0  0  0  0  0  0  0  0  0  0
  -12.2397  -17.3023   19.2280 H   0  0  0  0  0  0  0  0  0  0  0  0
  -11.4264  -17.3649   17.7620 H   0  0  0  0  0  0  0  0  0  0  0  0
   -9.3058  -15.8085   19.9120 H   0  0  0  0  0  0  0  0  0  0  0  0
   -9.1352  -15.6306   18.4150 H   0  0  0  0  0  0  0  0  0  0  0  0
   -9.7825  -12.8312   19.3029 H   0  0  0  0  0  0  0  0  0  0  0  0
  -10.0311  -11.0305   22.9305 H   0  0  0  0  0  0  0  0  0  0  0  0
  -12.2143   -9.2882   22.0736 H   0  0  0  0  0  0  0  0  0  0  0  0
  -13.2941  -10.6312   22.5401 H   0  0  0  0  0  0  0  0  0  0  0  0
  -13.4602   -9.0879   24.2204 H   0  0  0  0  0  0  0  0  0  0  0  0
  -11.7555   -8.6945   24.2065 H   0  0  0  0  0  0  0  0  0  0  0  0
  -13.2000  -11.2078   25.1288 H   0  0  0  0  0  0  0  0  0  0  0  0
  -11.8450  -10.4396   25.9268 H   0  0  0  0  0  0  0  0  0  0  0  0
  -10.4952  -11.6238   24.7069 H   0  0  0  0  0  0  0  0  0  0  0  0
  -13.3319  -20.6861   18.3394 H   0  0  0  0  0  0  0  0  0  0  0  0
  -13.8738  -19.8986   19.7221 H   0  0  0  0  0  0  0  0  0  0  0  0
  -13.2699  -22.8735   19.7916 H   0  0  0  0  0  0  0  0  0  0  0  0
  -14.8280  -22.1205   20.0266 H   0  0  0  0  0  0  0  0  0  0  0  0
  1  2  1  0
  2  3  2  0
  2  4  1  0
  4  5  1  0
  5  6  1  0
  5  7  1  0
  7  8  1  0
  8  9  1  0
  9 10  1  0
 10 11  1  0
 11 12  2  0
 11 13  1  0
 13 14  1  0
 14 15  1  0
 15 16  1  0
 16 17  2  0
 16 18  1  0
 18 19  1  0
 19 20  1  0
 20 21  1  0
 21 22  1  0
 10 23  1  0
 23 24  1  0
 24  7  1  0
 22 18  1  0
  1 25  1  0
  1 26  1  0
  1 27  1  0
  4 28  1  0
  5 29  1  0
  6 30  1  0
  6 31  1  0
  6 32  1  0
  7 33  1  0
  8 34  1  0
  8 35  1  0
  9 36  1  0
  9 37  1  0
 13 38  1  0
 13 39  1  0
 14 40  1  0
 14 41  1  0
 15 42  1  0
 18 43  1  0
 19 44  1  0
 19 45  1  0
 20 46  1  0
 20 47  1  0
 21 48  1  0
 21 49  1  0
 22 50  1  0
 23 51  1  0
 23 52  1  0
 24 53  1  0
 24 54  1  0
M  END
>  <Energy>  (975) 
723.33590077065719

>  <compound_id>  (975) 
21689

>  <target_id>  (975) 
1

>  <reference_id>  (975) 
30

>  <inspiration_ids>  (975) 
[44, 30]

>  <energy_score>  (975) 
677.8926087264339

>  <distance_score>  (975) 
13.525117482896302

>  <path>  (975) 
/opt/xchem-fragalysis-2/maxwin/BulkDock/SCRATCH/511015/C21689-P30/C21689-P30.minimised.mol

>  <scratch_subdir>  (975) 
/opt/xchem-fragalysis-2/maxwin/BulkDock/SCRATCH/511015/C21689-P30

>  <fragmenstein_runtime>  (975) 
31.34482455253601

>  <fragmenstein_outcome>  (975) 
too moved

>  <fragmenstein_mode>  (975) 
expansion

>  <fragmenstein_error>  (975) 


$$$$
C21691-P44
     RDKit          3D

 51 52  0  0  0  0  0  0  0  0999 V2000
   -7.3069  -21.6802   12.3845 C   0  0  0  0  0  0  0  0  0  0  0  0
   -8.6010  -22.1236   13.0027 C   0  0  0  0  0  0  0  0  0  0  0  0
   -9.5613  -22.4245   12.3553 O   0  0  0  0  0  0  0  0  0  0  0  0
   -8.4256  -22.0008   14.4285 N   0  0  0  0  0  0  0  0  0  0  0  0
   -9.4096  -22.1118   15.5573 C   0  0  0  0  0  0  0  0  0  0  0  0
  -10.2925  -23.2510   14.8385 C   0  0  0  0  0  0  0  0  0  0  0  0
   -9.2918  -20.7941   17.1318 C   0  0  0  0  0  0  0  0  0  0  0  0
   -9.2858  -19.0328   17.9144 C   0  0  0  0  0  0  0  0  0  0  0  0
   -7.8998  -18.3226   18.6188 C   0  0  0  0  0  0  0  0  0  0  0  0
   -6.8333  -19.2730   19.1936 N   0  0  0  0  0  0  0  0  0  0  0  0
   -5.8258  -18.5445   19.9205 C   0  0  0  0  0  0  0  0  0  0  0  0
   -5.7682  -18.2441   21.0839 O   0  0  0  0  0  0  0  0  0  0  0  0
   -4.6087  -18.2294   18.9790 C   0  0  0  0  0  0  0  0  0  0  0  0
   -3.2417  -18.0281   19.5002 N   0  0  0  0  0  0  0  0  0  0  0  0
   -2.1356  -18.9418   19.6290 C   0  0  0  0  0  0  0  0  0  0  0  0
   -2.0661  -20.1217   19.4197 O   0  0  0  0  0  0  0  0  0  0  0  0
   -0.7894  -18.2057   20.0115 C   0  0  0  0  0  0  0  0  0  0  0  0
    0.0297  -18.8439   21.1262 C   0  0  0  0  0  0  0  0  0  0  0  0
    0.7105  -17.7108   21.8893 C   0  0  0  0  0  0  0  0  0  0  0  0
    0.2946  -16.4621   21.1600 C   0  0  0  0  0  0  0  0  0  0  0  0
   -0.9495  -16.8105   20.4535 N   0  0  0  0  0  0  0  0  0  0  0  0
   -7.9930  -19.9364   19.6412 C   0  0  0  0  0  0  0  0  0  0  0  0
   -8.4058  -20.7974   18.4087 C   0  0  0  0  0  0  0  0  0  0  0  0
   -6.7436  -22.5414   12.0205 H   0  0  0  0  0  0  0  0  0  0  0  0
   -6.6471  -21.1947   13.0384 H   0  0  0  0  0  0  0  0  0  0  0  0
   -7.5157  -20.8506   11.7014 H   0  0  0  0  0  0  0  0  0  0  0  0
   -7.4590  -21.8093   14.6248 H   0  0  0  0  0  0  0  0  0  0  0  0
   -8.9326  -22.9833   15.9126 H   0  0  0  0  0  0  0  0  0  0  0  0
   -9.6728  -23.9109   14.2099 H   0  0  0  0  0  0  0  0  0  0  0  0
  -11.0118  -22.8893   14.1028 H   0  0  0  0  0  0  0  0  0  0  0  0
  -10.6595  -24.0651   15.4560 H   0  0  0  0  0  0  0  0  0  0  0  0
   -9.7909  -20.1706   16.3966 H   0  0  0  0  0  0  0  0  0  0  0  0
   -9.9920  -19.0403   18.7659 H   0  0  0  0  0  0  0  0  0  0  0  0
   -9.7148  -18.2625   17.2724 H   0  0  0  0  0  0  0  0  0  0  0  0
   -8.2242  -17.5979   19.3876 H   0  0  0  0  0  0  0  0  0  0  0  0
   -7.4725  -17.7070   17.8524 H   0  0  0  0  0  0  0  0  0  0  0  0
   -4.5231  -19.0698   18.2908 H   0  0  0  0  0  0  0  0  0  0  0  0
   -4.8377  -17.3456   18.3946 H   0  0  0  0  0  0  0  0  0  0  0  0
   -2.9580  -17.1140   19.8459 H   0  0  0  0  0  0  0  0  0  0  0  0
   -0.1901  -18.1987   19.0899 H   0  0  0  0  0  0  0  0  0  0  0  0
   -0.5810  -19.4571   21.7975 H   0  0  0  0  0  0  0  0  0  0  0  0
    0.7846  -19.5156   20.7000 H   0  0  0  0  0  0  0  0  0  0  0  0
    1.7993  -17.8314   21.8870 H   0  0  0  0  0  0  0  0  0  0  0  0
    0.3932  -17.7052   22.9363 H   0  0  0  0  0  0  0  0  0  0  0  0
    1.0817  -16.2104   20.4431 H   0  0  0  0  0  0  0  0  0  0  0  0
    0.1612  -15.6423   21.8675 H   0  0  0  0  0  0  0  0  0  0  0  0
   -1.0526  -16.2362   19.6213 H   0  0  0  0  0  0  0  0  0  0  0  0
   -8.7469  -19.4082   20.2578 H   0  0  0  0  0  0  0  0  0  0  0  0
   -7.5958  -20.5861   20.4333 H   0  0  0  0  0  0  0  0  0  0  0  0
   -7.4427  -21.1208   18.0631 H   0  0  0  0  0  0  0  0  0  0  0  0
   -9.1124  -21.2819   19.0434 H   0  0  0  0  0  0  0  0  0  0  0  0
  1  2  1  0
  2  3  2  0
  2  4  1  0
  4  5  1  0
  5  6  1  0
  5  7  1  0
  7  8  1  0
  8  9  1  0
  9 10  1  0
 10 11  1  0
 11 12  2  0
 11 13  1  0
 13 14  1  0
 14 15  1  0
 15 16  2  0
 15 17  1  0
 17 18  1  0
 18 19  1  0
 19 20  1  0
 20 21  1  0
 10 22  1  0
 22 23  1  0
 23  7  1  0
 21 17  1  0
  1 24  1  0
  1 25  1  0
  1 26  1  0
  4 27  1  0
  5 28  1  0
  6 29  1  0
  6 30  1  0
  6 31  1  0
  7 32  1  0
  8 33  1  0
  8 34  1  0
  9 35  1  0
  9 36  1  0
 13 37  1  0
 13 38  1  0
 14 39  1  0
 17 40  1  0
 18 41  1  0
 18 42  1  0
 19 43  1  0
 19 44  1  0
 20 45  1  0
 20 46  1  0
 21 47  1  0
 22 48  1  0
 22 49  1  0
 23 50  1  0
 23 51  1  0
M  END
>  <Energy>  (976) 
478.917097660416

>  <compound_id>  (976) 
21691

>  <target_id>  (976) 
1

>  <reference_id>  (976) 
44

>  <inspiration_ids>  (976) 
[44, 30]

>  <energy_score>  (976) 
399.17717621149

>  <distance_score>  (976) 
14.92375117864997

>  <path>  (976) 
/opt/xchem-fragalysis-2/maxwin/BulkDock/SCRATCH/511015/C21691-P44/C21691-P44.minimised.mol

>  <scratch_subdir>  (976) 
/opt/xchem-fragalysis-2/maxwin/BulkDock/SCRATCH/511015/C21691-P44

>  <fragmenstein_runtime>  (976) 
15.40656852722168

>  <fragmenstein_outcome>  (976) 
too moved

>  <fragmenstein_mode>  (976) 
expansion

>  <fragmenstein_error>  (976) 


$$$$
C21691-P30
     RDKit          3D

 51 52  0  0  0  0  0  0  0  0999 V2000
  -14.1748  -24.7258   13.3567 C   0  0  0  0  0  0  0  0  0  0  0  0
  -12.7818  -25.0753   13.8398 C   0  0  0  0  0  0  0  0  0  0  0  0
  -12.5919  -26.0847   14.4512 O   0  0  0  0  0  0  0  0  0  0  0  0
  -11.8796  -24.0271   13.4584 N   0  0  0  0  0  0  0  0  0  0  0  0
  -10.4394  -23.9077   13.6102 C   0  0  0  0  0  0  0  0  0  0  0  0
   -9.8389  -24.5531   12.3640 C   0  0  0  0  0  0  0  0  0  0  0  0
   -9.8591  -22.4672   13.8992 C   0  0  0  0  0  0  0  0  0  0  0  0
  -10.5297  -21.2466   13.3714 C   0  0  0  0  0  0  0  0  0  0  0  0
  -10.9126  -19.5964   13.9991 C   0  0  0  0  0  0  0  0  0  0  0  0
  -10.6481  -18.7846   15.5749 N   0  0  0  0  0  0  0  0  0  0  0  0
  -12.2335  -17.9478   16.2656 C   0  0  0  0  0  0  0  0  0  0  0  0
  -13.0668  -18.4849   17.0105 O   0  0  0  0  0  0  0  0  0  0  0  0
  -12.7730  -16.2265   15.8848 C   0  0  0  0  0  0  0  0  0  0  0  0
  -13.0959  -15.0832   16.7880 N   0  0  0  0  0  0  0  0  0  0  0  0
  -12.9617  -13.6433   16.5913 C   0  0  0  0  0  0  0  0  0  0  0  0
  -12.4812  -13.0190   15.6830 O   0  0  0  0  0  0  0  0  0  0  0  0
  -13.6643  -12.7738   17.7174 C   0  0  0  0  0  0  0  0  0  0  0  0
  -13.4436  -11.2489   17.5832 C   0  0  0  0  0  0  0  0  0  0  0  0
  -13.9750  -10.6714   18.8969 C   0  0  0  0  0  0  0  0  0  0  0  0
  -14.0014  -11.8771   19.8388 C   0  0  0  0  0  0  0  0  0  0  0  0
  -13.2606  -12.9380   19.1254 N   0  0  0  0  0  0  0  0  0  0  0  0
   -9.8999  -20.5232   15.9455 C   0  0  0  0  0  0  0  0  0  0  0  0
   -9.5905  -22.1727   15.3200 C   0  0  0  0  0  0  0  0  0  0  0  0
  -14.4968  -23.7780   13.7974 H   0  0  0  0  0  0  0  0  0  0  0  0
  -14.8760  -25.5080   13.6619 H   0  0  0  0  0  0  0  0  0  0  0  0
  -14.1847  -24.6547   12.2654 H   0  0  0  0  0  0  0  0  0  0  0  0
  -12.3726  -23.3645   12.8729 H   0  0  0  0  0  0  0  0  0  0  0  0
  -10.1628  -24.5662   14.4433 H   0  0  0  0  0  0  0  0  0  0  0  0
   -8.7479  -24.5564   12.3828 H   0  0  0  0  0  0  0  0  0  0  0  0
  -10.1872  -24.0323   11.4719 H   0  0  0  0  0  0  0  0  0  0  0  0
  -10.1630  -25.5965   12.2709 H   0  0  0  0  0  0  0  0  0  0  0  0
   -8.8696  -22.4953   13.4136 H   0  0  0  0  0  0  0  0  0  0  0  0
   -9.8703  -21.0664   12.5246 H   0  0  0  0  0  0  0  0  0  0  0  0
  -11.4608  -21.6407   13.0300 H   0  0  0  0  0  0  0  0  0  0  0  0
  -11.9604  -19.6186   13.8005 H   0  0  0  0  0  0  0  0  0  0  0  0
  -10.3805  -18.9115   13.3900 H   0  0  0  0  0  0  0  0  0  0  0  0
  -12.4030  -15.7819   14.9511 H   0  0  0  0  0  0  0  0  0  0  0  0
  -13.8204  -16.4706   15.6344 H   0  0  0  0  0  0  0  0  0  0  0  0
  -13.6273  -15.2532   17.6322 H   0  0  0  0  0  0  0  0  0  0  0  0
  -14.7377  -12.9927   17.6188 H   0  0  0  0  0  0  0  0  0  0  0  0
  -12.3793  -11.0134   17.4622 H   0  0  0  0  0  0  0  0  0  0  0  0
  -13.9749  -10.8357   16.7194 H   0  0  0  0  0  0  0  0  0  0  0  0
  -14.9925  -10.2879   18.7580 H   0  0  0  0  0  0  0  0  0  0  0  0
  -13.3599   -9.8409   19.2543 H   0  0  0  0  0  0  0  0  0  0  0  0
  -15.0385  -12.2016   19.9917 H   0  0  0  0  0  0  0  0  0  0  0  0
  -13.5929  -11.6589   20.8281 H   0  0  0  0  0  0  0  0  0  0  0  0
  -13.4739  -13.8599   19.4923 H   0  0  0  0  0  0  0  0  0  0  0  0
   -9.6049  -20.4809   15.0007 H   0  0  0  0  0  0  0  0  0  0  0  0
   -9.3714  -20.4853   16.9239 H   0  0  0  0  0  0  0  0  0  0  0  0
   -8.5223  -22.4061   15.3335 H   0  0  0  0  0  0  0  0  0  0  0  0
   -9.9093  -22.9725   15.9472 H   0  0  0  0  0  0  0  0  0  0  0  0
  1  2  1  0
  2  3  2  0
  2  4  1  0
  4  5  1  0
  5  6  1  0
  5  7  1  0
  7  8  1  0
  8  9  1  0
  9 10  1  0
 10 11  1  0
 11 12  2  0
 11 13  1  0
 13 14  1  0
 14 15  1  0
 15 16  2  0
 15 17  1  0
 17 18  1  0
 18 19  1  0
 19 20  1  0
 20 21  1  0
 10 22  1  0
 22 23  1  0
 23  7  1  0
 21 17  1  0
  1 24  1  0
  1 25  1  0
  1 26  1  0
  4 27  1  0
  5 28  1  0
  6 29  1  0
  6 30  1  0
  6 31  1  0
  7 32  1  0
  8 33  1  0
  8 34  1  0
  9 35  1  0
  9 36  1  0
 13 37  1  0
 13 38  1  0
 14 39  1  0
 17 40  1  0
 18 41  1  0
 18 42  1  0
 19 43  1  0
 19 44  1  0
 20 45  1  0
 20 46  1  0
 21 47  1  0
 22 48  1  0
 22 49  1  0
 23 50  1  0
 23 51  1  0
M  END
>  <Energy>  (977) 
497.35445156475498

>  <compound_id>  (977) 
21691

>  <target_id>  (977) 
1

>  <reference_id>  (977) 
30

>  <inspiration_ids>  (977) 
[44, 30]

>  <energy_score>  (977) 
417.614530115824

>  <distance_score>  (977) 
14.060820626249596

>  <path>  (977) 
/opt/xchem-fragalysis-2/maxwin/BulkDock/SCRATCH/511015/C21691-P30/C21691-P30.minimised.mol

>  <scratch_subdir>  (977) 
/opt/xchem-fragalysis-2/maxwin/BulkDock/SCRATCH/511015/C21691-P30

>  <fragmenstein_runtime>  (977) 
19.19988465309143

>  <fragmenstein_outcome>  (977) 
too moved

>  <fragmenstein_mode>  (977) 
expansion

>  <fragmenstein_error>  (977) 


$$$$
C21692-P44
     RDKit          3D

 51 52  0  0  0  0  0  0  0  0999 V2000
  -16.4466  -22.3697   13.8355 C   0  0  0  0  0  0  0  0  0  0  0  0
  -15.7833  -20.9993   13.7011 C   0  0  0  0  0  0  0  0  0  0  0  0
  -16.4189  -20.0245   13.3340 O   0  0  0  0  0  0  0  0  0  0  0  0
  -14.1630  -21.1854   14.0202 N   0  0  0  0  0  0  0  0  0  0  0  0
  -12.6021  -19.9447   13.8015 C   0  0  0  0  0  0  0  0  0  0  0  0
  -10.9529  -20.8908   13.6386 C   0  0  0  0  0  0  0  0  0  0  0  0
  -11.5264  -18.2407   14.2379 C   0  0  0  0  0  0  0  0  0  0  0  0
  -11.6081  -17.0866   15.3485 C   0  0  0  0  0  0  0  0  0  0  0  0
  -10.0114  -16.6007   15.8155 C   0  0  0  0  0  0  0  0  0  0  0  0
   -8.9083  -15.5857   14.9378 N   0  0  0  0  0  0  0  0  0  0  0  0
   -7.5002  -15.2778   15.8732 C   0  0  0  0  0  0  0  0  0  0  0  0
   -6.5241  -15.9367   15.8585 O   0  0  0  0  0  0  0  0  0  0  0  0
   -7.2031  -13.7339   16.9523 C   0  0  0  0  0  0  0  0  0  0  0  0
   -6.0442  -13.5851   17.0844 O   0  0  0  0  0  0  0  0  0  0  0  0
   -8.1936  -12.3662   17.6968 N   0  0  0  0  0  0  0  0  0  0  0  0
   -7.7393  -10.8645   18.4407 C   0  0  0  0  0  0  0  0  0  0  0  0
   -8.3074   -8.8657   18.5356 C   0  0  0  0  0  0  0  0  0  0  0  0
   -7.5250   -7.8884   17.4701 C   0  0  0  0  0  0  0  0  0  0  0  0
   -8.1044   -6.4880   17.6428 C   0  0  0  0  0  0  0  0  0  0  0  0
   -8.7510   -6.4427   19.0065 C   0  0  0  0  0  0  0  0  0  0  0  0
   -8.6834   -7.7990   19.6153 N   0  0  0  0  0  0  0  0  0  0  0  0
   -9.1519  -16.5475   13.9399 C   0  0  0  0  0  0  0  0  0  0  0  0
  -10.4434  -17.2046   13.3763 C   0  0  0  0  0  0  0  0  0  0  0  0
  -16.7473  -22.6953   12.8349 H   0  0  0  0  0  0  0  0  0  0  0  0
  -15.7853  -23.1353   14.2457 H   0  0  0  0  0  0  0  0  0  0  0  0
  -17.3397  -22.2866   14.4589 H   0  0  0  0  0  0  0  0  0  0  0  0
  -13.9648  -22.1645   14.2261 H   0  0  0  0  0  0  0  0  0  0  0  0
  -12.4008  -20.4828   12.9590 H   0  0  0  0  0  0  0  0  0  0  0  0
  -10.3437  -20.3691   12.9142 H   0  0  0  0  0  0  0  0  0  0  0  0
  -11.1052  -21.9129   13.2436 H   0  0  0  0  0  0  0  0  0  0  0  0
  -10.3606  -20.9694   14.5519 H   0  0  0  0  0  0  0  0  0  0  0  0
  -10.7904  -18.8184   14.7755 H   0  0  0  0  0  0  0  0  0  0  0  0
  -12.1241  -17.4198   16.2511 H   0  0  0  0  0  0  0  0  0  0  0  0
  -12.1400  -16.2041   14.9738 H   0  0  0  0  0  0  0  0  0  0  0  0
   -9.4437  -17.5058   15.9626 H   0  0  0  0  0  0  0  0  0  0  0  0
  -10.0497  -16.3362   16.8795 H   0  0  0  0  0  0  0  0  0  0  0  0
   -9.1315  -12.6039   17.6223 H   0  0  0  0  0  0  0  0  0  0  0  0
   -7.4027  -11.3045   19.3164 H   0  0  0  0  0  0  0  0  0  0  0  0
   -6.9058  -10.8185   17.7075 H   0  0  0  0  0  0  0  0  0  0  0  0
   -9.3738   -8.7267   18.2543 H   0  0  0  0  0  0  0  0  0  0  0  0
   -6.4483   -7.8236   17.6280 H   0  0  0  0  0  0  0  0  0  0  0  0
   -7.6059   -8.2027   16.4264 H   0  0  0  0  0  0  0  0  0  0  0  0
   -8.8609   -6.3128   16.8688 H   0  0  0  0  0  0  0  0  0  0  0  0
   -7.3324   -5.7206   17.5275 H   0  0  0  0  0  0  0  0  0  0  0  0
   -9.7996   -6.1370   18.9067 H   0  0  0  0  0  0  0  0  0  0  0  0
   -8.2721   -5.7100   19.6647 H   0  0  0  0  0  0  0  0  0  0  0  0
   -9.6279   -7.9295   19.9498 H   0  0  0  0  0  0  0  0  0  0  0  0
   -8.2376  -17.1147   13.8424 H   0  0  0  0  0  0  0  0  0  0  0  0
   -8.9315  -15.8876   13.0773 H   0  0  0  0  0  0  0  0  0  0  0  0
  -11.0323  -16.4220   12.8739 H   0  0  0  0  0  0  0  0  0  0  0  0
   -9.8424  -17.8078   12.6910 H   0  0  0  0  0  0  0  0  0  0  0  0
  1  2  1  0
  2  3  2  0
  2  4  1  0
  4  5  1  0
  5  6  1  0
  5  7  1  0
  7  8  1  0
  8  9  1  0
  9 10  1  0
 10 11  1  0
 11 12  2  0
 11 13  1  0
 13 14  2  0
 13 15  1  0
 15 16  1  0
 16 17  1  0
 17 18  1  0
 18 19  1  0
 19 20  1  0
 20 21  1  0
 10 22  1  0
 22 23  1  0
 23  7  1  0
 21 17  1  0
  1 24  1  0
  1 25  1  0
  1 26  1  0
  4 27  1  0
  5 28  1  0
  6 29  1  0
  6 30  1  0
  6 31  1  0
  7 32  1  0
  8 33  1  0
  8 34  1  0
  9 35  1  0
  9 36  1  0
 15 37  1  0
 16 38  1  0
 16 39  1  0
 17 40  1  0
 18 41  1  0
 18 42  1  0
 19 43  1  0
 19 44  1  0
 20 45  1  0
 20 46  1  0
 21 47  1  0
 22 48  1  0
 22 49  1  0
 23 50  1  0
 23 51  1  0
M  END
>  <Energy>  (978) 
859.10575694479962

>  <compound_id>  (978) 
21692

>  <target_id>  (978) 
1

>  <reference_id>  (978) 
44

>  <inspiration_ids>  (978) 
[44, 30]

>  <energy_score>  (978) 
776.0655999227233

>  <distance_score>  (978) 
11.852322431645279

>  <path>  (978) 
/opt/xchem-fragalysis-2/maxwin/BulkDock/SCRATCH/511015/C21692-P44/C21692-P44.minimised.mol

>  <scratch_subdir>  (978) 
/opt/xchem-fragalysis-2/maxwin/BulkDock/SCRATCH/511015/C21692-P44

>  <fragmenstein_runtime>  (978) 
16.35671877861023

>  <fragmenstein_outcome>  (978) 
too moved

>  <fragmenstein_mode>  (978) 
expansion

>  <fragmenstein_error>  (978) 


$$$$
C21692-P30
     RDKit          3D

 51 52  0  0  0  0  0  0  0  0999 V2000
    0.9933  -11.1251   12.4772 C   0  0  0  0  0  0  0  0  0  0  0  0
    0.9748  -12.3943   13.3041 C   0  0  0  0  0  0  0  0  0  0  0  0
    0.4752  -13.3883   12.8676 O   0  0  0  0  0  0  0  0  0  0  0  0
    1.5883  -12.1343   14.5741 N   0  0  0  0  0  0  0  0  0  0  0  0
    1.8800  -13.0165   15.6871 C   0  0  0  0  0  0  0  0  0  0  0  0
    3.1306  -13.8413   15.3890 C   0  0  0  0  0  0  0  0  0  0  0  0
    1.9699  -12.2711   17.0335 C   0  0  0  0  0  0  0  0  0  0  0  0
    0.7526  -11.4131   17.3226 C   0  0  0  0  0  0  0  0  0  0  0  0
    0.9980  -10.4939   18.5265 C   0  0  0  0  0  0  0  0  0  0  0  0
    1.9492   -9.3389   18.2748 N   0  0  0  0  0  0  0  0  0  0  0  0
    1.6263   -8.2434   19.1321 C   0  0  0  0  0  0  0  0  0  0  0  0
    2.0281   -7.9647   20.2312 O   0  0  0  0  0  0  0  0  0  0  0  0
    0.5402   -7.3044   18.4848 C   0  0  0  0  0  0  0  0  0  0  0  0
    0.3122   -7.4108   17.3182 O   0  0  0  0  0  0  0  0  0  0  0  0
   -0.0478   -6.4607   19.4785 N   0  0  0  0  0  0  0  0  0  0  0  0
   -1.0318   -5.4099   19.3660 C   0  0  0  0  0  0  0  0  0  0  0  0
   -1.6480   -4.9800   20.7146 C   0  0  0  0  0  0  0  0  0  0  0  0
   -2.7361   -3.9201   20.5043 C   0  0  0  0  0  0  0  0  0  0  0  0
   -2.0383   -2.6290   20.8434 C   0  0  0  0  0  0  0  0  0  0  0  0
   -1.1803   -3.0670   22.0012 C   0  0  0  0  0  0  0  0  0  0  0  0
   -0.6383   -4.3795   21.6174 N   0  0  0  0  0  0  0  0  0  0  0  0
    2.9746  -10.4319   18.4205 C   0  0  0  0  0  0  0  0  0  0  0  0
    3.1718  -11.3381   17.1893 C   0  0  0  0  0  0  0  0  0  0  0  0
    0.4949  -11.3036   11.5198 H   0  0  0  0  0  0  0  0  0  0  0  0
    2.0258  -10.8221   12.2819 H   0  0  0  0  0  0  0  0  0  0  0  0
    0.4605  -10.3278   13.0034 H   0  0  0  0  0  0  0  0  0  0  0  0
    1.9797  -11.1978   14.5667 H   0  0  0  0  0  0  0  0  0  0  0  0
    1.0359  -13.7163   15.7400 H   0  0  0  0  0  0  0  0  0  0  0  0
    3.3638  -14.5144   16.2203 H   0  0  0  0  0  0  0  0  0  0  0  0
    4.0009  -13.2024   15.2047 H   0  0  0  0  0  0  0  0  0  0  0  0
    2.9851  -14.4534   14.4918 H   0  0  0  0  0  0  0  0  0  0  0  0
    2.0522  -13.0276   17.8245 H   0  0  0  0  0  0  0  0  0  0  0  0
   -0.1119  -12.0511   17.5024 H   0  0  0  0  0  0  0  0  0  0  0  0
    0.5450  -10.7527   16.4750 H   0  0  0  0  0  0  0  0  0  0  0  0
    1.1120  -10.9954   19.5021 H   0  0  0  0  0  0  0  0  0  0  0  0
    0.0210  -10.0031   18.6686 H   0  0  0  0  0  0  0  0  0  0  0  0
    0.4572   -6.5807   20.3572 H   0  0  0  0  0  0  0  0  0  0  0  0
   -0.5414   -4.5651   18.8679 H   0  0  0  0  0  0  0  0  0  0  0  0
   -1.8086   -5.7704   18.6825 H   0  0  0  0  0  0  0  0  0  0  0  0
   -2.0703   -5.8613   21.2101 H   0  0  0  0  0  0  0  0  0  0  0  0
   -3.1526   -3.9083   19.4925 H   0  0  0  0  0  0  0  0  0  0  0  0
   -3.5611   -4.0900   21.2078 H   0  0  0  0  0  0  0  0  0  0  0  0
   -2.7410   -1.8330   21.0960 H   0  0  0  0  0  0  0  0  0  0  0  0
   -1.4213   -2.3049   19.9981 H   0  0  0  0  0  0  0  0  0  0  0  0
   -0.3652   -2.3785   22.1980 H   0  0  0  0  0  0  0  0  0  0  0  0
   -1.8131   -3.1892   22.8818 H   0  0  0  0  0  0  0  0  0  0  0  0
    0.2196   -4.2154   21.0888 H   0  0  0  0  0  0  0  0  0  0  0  0
    3.0102  -10.9483   19.3951 H   0  0  0  0  0  0  0  0  0  0  0  0
    3.9047   -9.8436   18.4767 H   0  0  0  0  0  0  0  0  0  0  0  0
    3.3018  -10.7102   16.2999 H   0  0  0  0  0  0  0  0  0  0  0  0
    4.0907  -11.9226   17.3122 H   0  0  0  0  0  0  0  0  0  0  0  0
  1  2  1  0
  2  3  2  0
  2  4  1  0
  4  5  1  0
  5  6  1  0
  5  7  1  0
  7  8  1  0
  8  9  1  0
  9 10  1  0
 10 11  1  0
 11 12  2  0
 11 13  1  0
 13 14  2  0
 13 15  1  0
 15 16  1  0
 16 17  1  0
 17 18  1  0
 18 19  1  0
 19 20  1  0
 20 21  1  0
 10 22  1  0
 22 23  1  0
 23  7  1  0
 21 17  1  0
  1 24  1  0
  1 25  1  0
  1 26  1  0
  4 27  1  0
  5 28  1  0
  6 29  1  0
  6 30  1  0
  6 31  1  0
  7 32  1  0
  8 33  1  0
  8 34  1  0
  9 35  1  0
  9 36  1  0
 15 37  1  0
 16 38  1  0
 16 39  1  0
 17 40  1  0
 18 41  1  0
 18 42  1  0
 19 43  1  0
 19 44  1  0
 20 45  1  0
 20 46  1  0
 21 47  1  0
 22 48  1  0
 22 49  1  0
 23 50  1  0
 23 51  1  0
M  END
>  <Energy>  (979) 
115.45424912290962

>  <compound_id>  (979) 
21692

>  <target_id>  (979) 
1

>  <reference_id>  (979) 
30

>  <inspiration_ids>  (979) 
[44, 30]

>  <energy_score>  (979) 
32.414092100830885

>  <distance_score>  (979) 
17.221518498875657

>  <path>  (979) 
/opt/xchem-fragalysis-2/maxwin/BulkDock/SCRATCH/511015/C21692-P30/C21692-P30.minimised.mol

>  <scratch_subdir>  (979) 
/opt/xchem-fragalysis-2/maxwin/BulkDock/SCRATCH/511015/C21692-P30

>  <fragmenstein_runtime>  (979) 
25.689644813537598

>  <fragmenstein_outcome>  (979) 
too moved

>  <fragmenstein_mode>  (979) 
expansion

>  <fragmenstein_error>  (979) 


$$$$
C21697-P44
     RDKit          3D

 43 44  0  0  0  0  0  0  0  0999 V2000
   -7.2465  -19.5805   18.9027 C   0  0  0  0  0  0  0  0  0  0  0  0
   -6.1840  -20.5532   18.5308 N   0  0  0  0  0  0  0  0  0  0  0  0
   -5.6662  -21.1974   19.7286 C   0  0  0  0  0  0  0  0  0  0  0  0
   -6.0075  -22.2122   20.2821 O   0  0  0  0  0  0  0  0  0  0  0  0
   -4.5656  -20.2830   20.3583 C   0  0  0  0  0  0  0  0  0  0  0  0
   -4.7867  -19.8561   21.7545 N   0  0  0  0  0  0  0  0  0  0  0  0
   -5.8500  -19.0625   22.3524 C   0  0  0  0  0  0  0  0  0  0  0  0
   -6.8591  -18.6213   21.8755 O   0  0  0  0  0  0  0  0  0  0  0  0
   -5.5153  -18.7491   23.8746 C   0  0  0  0  0  0  0  0  0  0  0  0
   -4.2795  -17.8869   24.0815 C   0  0  0  0  0  0  0  0  0  0  0  0
   -4.4118  -17.3879   25.5084 C   0  0  0  0  0  0  0  0  0  0  0  0
   -5.9110  -17.3224   25.7374 C   0  0  0  0  0  0  0  0  0  0  0  0
   -6.5422  -17.8644   24.5231 N   0  0  0  0  0  0  0  0  0  0  0  0
   -7.4765  -21.1132   17.3076 C   0  0  0  0  0  0  0  0  0  0  0  0
   -7.9100  -22.3151   15.5941 C   0  0  0  0  0  0  0  0  0  0  0  0
   -9.2091  -22.8812   14.9141 C   0  0  0  0  0  0  0  0  0  0  0  0
   -9.7949  -21.6458   14.7285 N   0  0  0  0  0  0  0  0  0  0  0  0
   -9.8314  -21.1198   16.1025 C   0  0  0  0  0  0  0  0  0  0  0  0
   -8.9131  -20.6879   17.5589 C   0  0  0  0  0  0  0  0  0  0  0  0
   -7.5454  -18.8142   18.1828 H   0  0  0  0  0  0  0  0  0  0  0  0
   -7.9876  -19.9773   19.6050 H   0  0  0  0  0  0  0  0  0  0  0  0
   -6.7041  -18.8960   19.5682 H   0  0  0  0  0  0  0  0  0  0  0  0
   -3.6239  -20.8410   20.3360 H   0  0  0  0  0  0  0  0  0  0  0  0
   -4.4332  -19.3720   19.7661 H   0  0  0  0  0  0  0  0  0  0  0  0
   -4.0469  -19.9812   22.4321 H   0  0  0  0  0  0  0  0  0  0  0  0
   -5.4591  -19.6987   24.4200 H   0  0  0  0  0  0  0  0  0  0  0  0
   -4.3251  -17.0537   23.3827 H   0  0  0  0  0  0  0  0  0  0  0  0
   -3.3454  -18.4332   23.9237 H   0  0  0  0  0  0  0  0  0  0  0  0
   -3.9755  -18.1292   26.1900 H   0  0  0  0  0  0  0  0  0  0  0  0
   -3.8795  -16.4577   25.6778 H   0  0  0  0  0  0  0  0  0  0  0  0
   -6.2883  -16.3266   25.9604 H   0  0  0  0  0  0  0  0  0  0  0  0
   -6.1823  -17.9529   26.5922 H   0  0  0  0  0  0  0  0  0  0  0  0
   -6.6793  -17.0912   23.8465 H   0  0  0  0  0  0  0  0  0  0  0  0
   -6.8269  -21.9207   17.7668 H   0  0  0  0  0  0  0  0  0  0  0  0
   -7.5893  -21.8554   14.6239 H   0  0  0  0  0  0  0  0  0  0  0  0
   -7.4288  -23.2155   15.8432 H   0  0  0  0  0  0  0  0  0  0  0  0
   -9.1576  -23.2580   13.8890 H   0  0  0  0  0  0  0  0  0  0  0  0
   -9.7564  -23.6459   15.4520 H   0  0  0  0  0  0  0  0  0  0  0  0
  -10.6524  -21.6731   14.2047 H   0  0  0  0  0  0  0  0  0  0  0  0
  -10.1100  -20.1303   15.7956 H   0  0  0  0  0  0  0  0  0  0  0  0
  -10.0365  -22.0411   16.5185 H   0  0  0  0  0  0  0  0  0  0  0  0
   -9.1695  -19.6453   17.7792 H   0  0  0  0  0  0  0  0  0  0  0  0
   -9.1880  -21.1349   18.4935 H   0  0  0  0  0  0  0  0  0  0  0  0
  1  2  1  0
  2  3  1  0
  3  4  2  0
  3  5  1  0
  5  6  1  0
  6  7  1  0
  7  8  2  0
  7  9  1  0
  9 10  1  0
 10 11  1  0
 11 12  1  0
 12 13  1  0
  2 14  1  0
 14 15  1  0
 15 16  1  0
 16 17  1  0
 17 18  1  0
 18 19  1  0
 13  9  1  0
 19 14  1  0
  1 20  1  0
  1 21  1  0
  1 22  1  0
  5 23  1  0
  5 24  1  0
  6 25  1  0
  9 26  1  0
 10 27  1  0
 10 28  1  0
 11 29  1  0
 11 30  1  0
 12 31  1  0
 12 32  1  0
 13 33  1  0
 14 34  1  0
 15 35  1  0
 15 36  1  0
 16 37  1  0
 16 38  1  0
 17 39  1  0
 18 40  1  0
 18 41  1  0
 19 42  1  0
 19 43  1  0
M  END
>  <Energy>  (980) 
464.606733296242

>  <compound_id>  (980) 
21697

>  <target_id>  (980) 
1

>  <reference_id>  (980) 
44

>  <inspiration_ids>  (980) 
[44, 30]

>  <energy_score>  (980) 
378.5332202747742

>  <distance_score>  (980) 
14.131800987424713

>  <path>  (980) 
/opt/xchem-fragalysis-2/maxwin/BulkDock/SCRATCH/511015/C21697-P44/C21697-P44.minimised.mol

>  <scratch_subdir>  (980) 
/opt/xchem-fragalysis-2/maxwin/BulkDock/SCRATCH/511015/C21697-P44

>  <fragmenstein_runtime>  (980) 
14.505902767181396

>  <fragmenstein_outcome>  (980) 
too moved

>  <fragmenstein_mode>  (980) 
expansion

>  <fragmenstein_error>  (980) 


$$$$
C21697-P30
     RDKit          3D

 43 44  0  0  0  0  0  0  0  0999 V2000
  -10.6607   -9.4447   12.0600 C   0  0  0  0  0  0  0  0  0  0  0  0
  -10.1273   -9.8753   13.3889 N   0  0  0  0  0  0  0  0  0  0  0  0
   -8.9358   -9.0943   13.7276 C   0  0  0  0  0  0  0  0  0  0  0  0
   -7.7695   -9.3098   13.5062 O   0  0  0  0  0  0  0  0  0  0  0  0
   -9.3529   -7.7207   14.3990 C   0  0  0  0  0  0  0  0  0  0  0  0
   -8.4502   -7.0523   15.3572 N   0  0  0  0  0  0  0  0  0  0  0  0
   -8.5983   -5.8097   16.0978 C   0  0  0  0  0  0  0  0  0  0  0  0
   -9.4586   -4.9726   16.0571 O   0  0  0  0  0  0  0  0  0  0  0  0
   -7.4389   -5.6094   17.1757 C   0  0  0  0  0  0  0  0  0  0  0  0
   -7.8877   -4.8481   18.4443 C   0  0  0  0  0  0  0  0  0  0  0  0
   -6.7109   -3.9779   18.8840 C   0  0  0  0  0  0  0  0  0  0  0  0
   -5.6334   -4.2529   17.8568 C   0  0  0  0  0  0  0  0  0  0  0  0
   -6.3510   -4.7337   16.6611 N   0  0  0  0  0  0  0  0  0  0  0  0
  -10.2723  -11.3388   12.7152 C   0  0  0  0  0  0  0  0  0  0  0  0
  -11.6207  -12.0316   13.0942 C   0  0  0  0  0  0  0  0  0  0  0  0
  -11.6910  -13.4941   12.6235 C   0  0  0  0  0  0  0  0  0  0  0  0
  -10.6030  -14.3005   13.1628 N   0  0  0  0  0  0  0  0  0  0  0  0
   -9.3101  -13.7260   12.8188 C   0  0  0  0  0  0  0  0  0  0  0  0
   -9.1858  -12.2717   13.2959 C   0  0  0  0  0  0  0  0  0  0  0  0
   -9.9030   -9.4854   11.2622 H   0  0  0  0  0  0  0  0  0  0  0  0
  -11.6431   -9.8353   11.7715 H   0  0  0  0  0  0  0  0  0  0  0  0
  -10.8508   -8.3665   12.1630 H   0  0  0  0  0  0  0  0  0  0  0  0
  -10.3113   -7.8487   14.9145 H   0  0  0  0  0  0  0  0  0  0  0  0
   -9.5193   -7.0009   13.5898 H   0  0  0  0  0  0  0  0  0  0  0  0
   -7.5539   -7.4718   15.5886 H   0  0  0  0  0  0  0  0  0  0  0  0
   -7.0232   -6.5860   17.4427 H   0  0  0  0  0  0  0  0  0  0  0  0
   -8.1754   -5.5490   19.2346 H   0  0  0  0  0  0  0  0  0  0  0  0
   -8.7590   -4.2090   18.2624 H   0  0  0  0  0  0  0  0  0  0  0  0
   -7.0046   -2.9221   18.8687 H   0  0  0  0  0  0  0  0  0  0  0  0
   -6.3784   -4.2235   19.8973 H   0  0  0  0  0  0  0  0  0  0  0  0
   -5.0381   -3.3626   17.6330 H   0  0  0  0  0  0  0  0  0  0  0  0
   -4.9499   -5.0340   18.2068 H   0  0  0  0  0  0  0  0  0  0  0  0
   -6.8037   -3.9281   16.2187 H   0  0  0  0  0  0  0  0  0  0  0  0
  -10.0819  -11.3965   11.6288 H   0  0  0  0  0  0  0  0  0  0  0  0
  -12.4753  -11.4922   12.6735 H   0  0  0  0  0  0  0  0  0  0  0  0
  -11.7497  -11.9935   14.1847 H   0  0  0  0  0  0  0  0  0  0  0  0
  -11.6824  -13.5321   11.5273 H   0  0  0  0  0  0  0  0  0  0  0  0
  -12.6439  -13.9245   12.9504 H   0  0  0  0  0  0  0  0  0  0  0  0
  -10.6592  -15.2483   12.7915 H   0  0  0  0  0  0  0  0  0  0  0  0
   -8.5224  -14.3266   13.2860 H   0  0  0  0  0  0  0  0  0  0  0  0
   -9.1490  -13.7784   11.7350 H   0  0  0  0  0  0  0  0  0  0  0  0
   -8.1992  -11.8929   13.0083 H   0  0  0  0  0  0  0  0  0  0  0  0
   -9.2522  -12.2317   14.3872 H   0  0  0  0  0  0  0  0  0  0  0  0
  1  2  1  0
  2  3  1  0
  3  4  2  0
  3  5  1  0
  5  6  1  0
  6  7  1  0
  7  8  2  0
  7  9  1  0
  9 10  1  0
 10 11  1  0
 11 12  1  0
 12 13  1  0
  2 14  1  0
 14 15  1  0
 15 16  1  0
 16 17  1  0
 17 18  1  0
 18 19  1  0
 13  9  1  0
 19 14  1  0
  1 20  1  0
  1 21  1  0
  1 22  1  0
  5 23  1  0
  5 24  1  0
  6 25  1  0
  9 26  1  0
 10 27  1  0
 10 28  1  0
 11 29  1  0
 11 30  1  0
 12 31  1  0
 12 32  1  0
 13 33  1  0
 14 34  1  0
 15 35  1  0
 15 36  1  0
 16 37  1  0
 16 38  1  0
 17 39  1  0
 18 40  1  0
 18 41  1  0
 19 42  1  0
 19 43  1  0
M  END
>  <Energy>  (981) 
126.83665258237281

>  <compound_id>  (981) 
21697

>  <target_id>  (981) 
1

>  <reference_id>  (981) 
30

>  <inspiration_ids>  (981) 
[44, 30]

>  <energy_score>  (981) 
40.76313956090479

>  <distance_score>  (981) 
14.525124286337727

>  <path>  (981) 
/opt/xchem-fragalysis-2/maxwin/BulkDock/SCRATCH/511015/C21697-P30/C21697-P30.minimised.mol

>  <scratch_subdir>  (981) 
/opt/xchem-fragalysis-2/maxwin/BulkDock/SCRATCH/511015/C21697-P30

>  <fragmenstein_runtime>  (981) 
17.567304372787476

>  <fragmenstein_outcome>  (981) 
too moved

>  <fragmenstein_mode>  (981) 
expansion

>  <fragmenstein_error>  (981) 


$$$$
C21698-P44
     RDKit          3D

 52 53  0  0  0  0  0  0  0  0999 V2000
  -10.2274  -25.1893   11.2615 C   0  0  0  0  0  0  0  0  0  0  0  0
  -10.6733  -23.8902   11.9551 C   0  0  0  0  0  0  0  0  0  0  0  0
  -12.1142  -24.0953   12.4447 C   0  0  0  0  0  0  0  0  0  0  0  0
   -9.6208  -23.5164   12.9060 N   0  0  0  0  0  0  0  0  0  0  0  0
   -9.3277  -22.1079   13.1063 C   0  0  0  0  0  0  0  0  0  0  0  0
   -7.8695  -21.8725   13.8084 C   0  0  0  0  0  0  0  0  0  0  0  0
   -7.8430  -22.1097   15.6164 C   0  0  0  0  0  0  0  0  0  0  0  0
   -7.3020  -21.3992   17.5587 N   0  0  0  0  0  0  0  0  0  0  0  0
   -6.5735  -23.1992   17.5805 C   0  0  0  0  0  0  0  0  0  0  0  0
   -6.0084  -20.0884   18.2724 C   0  0  0  0  0  0  0  0  0  0  0  0
   -5.1076  -19.4060   17.6896 O   0  0  0  0  0  0  0  0  0  0  0  0
   -6.1191  -19.6146   19.9405 C   0  0  0  0  0  0  0  0  0  0  0  0
   -5.2931  -19.4382   21.1482 N   0  0  0  0  0  0  0  0  0  0  0  0
   -5.6650  -19.1339   22.5156 C   0  0  0  0  0  0  0  0  0  0  0  0
   -6.7512  -19.0275   23.0291 O   0  0  0  0  0  0  0  0  0  0  0  0
   -4.4799  -18.9050   23.5487 C   0  0  0  0  0  0  0  0  0  0  0  0
   -3.0012  -18.9358   23.2527 C   0  0  0  0  0  0  0  0  0  0  0  0
   -2.3784  -18.3208   24.5284 C   0  0  0  0  0  0  0  0  0  0  0  0
   -3.5052  -17.5404   25.2045 C   0  0  0  0  0  0  0  0  0  0  0  0
   -4.5550  -17.5550   24.1992 N   0  0  0  0  0  0  0  0  0  0  0  0
   -9.1980  -23.3564   15.3780 C   0  0  0  0  0  0  0  0  0  0  0  0
   -9.7860  -24.1403   14.1853 C   0  0  0  0  0  0  0  0  0  0  0  0
   -9.2225  -25.0959   10.8360 H   0  0  0  0  0  0  0  0  0  0  0  0
  -10.9097  -25.4452   10.4431 H   0  0  0  0  0  0  0  0  0  0  0  0
  -10.2153  -26.0354   11.9580 H   0  0  0  0  0  0  0  0  0  0  0  0
  -10.7233  -23.0957   11.2178 H   0  0  0  0  0  0  0  0  0  0  0  0
  -12.2304  -25.0042   13.0447 H   0  0  0  0  0  0  0  0  0  0  0  0
  -12.7901  -24.2005   11.5880 H   0  0  0  0  0  0  0  0  0  0  0  0
  -12.4614  -23.2447   13.0286 H   0  0  0  0  0  0  0  0  0  0  0  0
  -10.1365  -21.6277   13.6698 H   0  0  0  0  0  0  0  0  0  0  0  0
   -9.2921  -21.5913   12.1448 H   0  0  0  0  0  0  0  0  0  0  0  0
   -7.3260  -21.0186   13.4200 H   0  0  0  0  0  0  0  0  0  0  0  0
   -7.2416  -22.5423   13.2141 H   0  0  0  0  0  0  0  0  0  0  0  0
   -8.9729  -21.8515   15.9403 H   0  0  0  0  0  0  0  0  0  0  0  0
   -6.8643  -23.9077   18.4410 H   0  0  0  0  0  0  0  0  0  0  0  0
   -6.8732  -23.3465   16.5511 H   0  0  0  0  0  0  0  0  0  0  0  0
   -7.2119  -24.1628   17.3819 H   0  0  0  0  0  0  0  0  0  0  0  0
   -6.1111  -18.5371   19.6734 H   0  0  0  0  0  0  0  0  0  0  0  0
   -7.1427  -19.6024   20.3290 H   0  0  0  0  0  0  0  0  0  0  0  0
   -4.2867  -19.3634   21.0554 H   0  0  0  0  0  0  0  0  0  0  0  0
   -4.6790  -19.6661   24.3206 H   0  0  0  0  0  0  0  0  0  0  0  0
   -2.7458  -18.3785   22.3491 H   0  0  0  0  0  0  0  0  0  0  0  0
   -2.6414  -19.9594   23.1016 H   0  0  0  0  0  0  0  0  0  0  0  0
   -1.4962  -17.7177   24.2982 H   0  0  0  0  0  0  0  0  0  0  0  0
   -2.0433  -19.1251   25.1950 H   0  0  0  0  0  0  0  0  0  0  0  0
   -3.8355  -18.0591   26.1119 H   0  0  0  0  0  0  0  0  0  0  0  0
   -3.1956  -16.5344   25.4893 H   0  0  0  0  0  0  0  0  0  0  0  0
   -5.4966  -17.3998   24.5618 H   0  0  0  0  0  0  0  0  0  0  0  0
   -8.9379  -24.1278   16.0209 H   0  0  0  0  0  0  0  0  0  0  0  0
  -10.0996  -22.9317   15.7565 H   0  0  0  0  0  0  0  0  0  0  0  0
  -10.8355  -24.2932   14.4462 H   0  0  0  0  0  0  0  0  0  0  0  0
   -9.4183  -25.1727   14.1413 H   0  0  0  0  0  0  0  0  0  0  0  0
  1  2  1  0
  2  3  1  0
  2  4  1  0
  4  5  1  0
  5  6  1  0
  6  7  1  0
  7  8  1  0
  8  9  1  0
  8 10  1  0
 10 11  2  0
 10 12  1  0
 12 13  1  0
 13 14  1  0
 14 15  2  0
 14 16  1  0
 16 17  1  0
 17 18  1  0
 18 19  1  0
 19 20  1  0
  7 21  1  0
 21 22  1  0
 22  4  1  0
 20 16  1  0
  1 23  1  0
  1 24  1  0
  1 25  1  0
  2 26  1  0
  3 27  1  0
  3 28  1  0
  3 29  1  0
  5 30  1  0
  5 31  1  0
  6 32  1  0
  6 33  1  0
  7 34  1  0
  9 35  1  0
  9 36  1  0
  9 37  1  0
 12 38  1  0
 12 39  1  0
 13 40  1  0
 16 41  1  0
 17 42  1  0
 17 43  1  0
 18 44  1  0
 18 45  1  0
 19 46  1  0
 19 47  1  0
 20 48  1  0
 21 49  1  0
 21 50  1  0
 22 51  1  0
 22 52  1  0
M  END
>  <Energy>  (982) 
742.48063128166359

>  <compound_id>  (982) 
21698

>  <target_id>  (982) 
1

>  <reference_id>  (982) 
44

>  <inspiration_ids>  (982) 
[44, 30]

>  <energy_score>  (982) 
654.8257961835761

>  <distance_score>  (982) 
14.127491350065458

>  <path>  (982) 
/opt/xchem-fragalysis-2/maxwin/BulkDock/SCRATCH/511015/C21698-P44/C21698-P44.minimised.mol

>  <scratch_subdir>  (982) 
/opt/xchem-fragalysis-2/maxwin/BulkDock/SCRATCH/511015/C21698-P44

>  <fragmenstein_runtime>  (982) 
25.87661361694336

>  <fragmenstein_outcome>  (982) 
too moved

>  <fragmenstein_mode>  (982) 
expansion

>  <fragmenstein_error>  (982) 


$$$$
C21698-P30
     RDKit          3D

 52 53  0  0  0  0  0  0  0  0999 V2000
   -0.6064  -20.8625   16.9186 C   0  0  0  0  0  0  0  0  0  0  0  0
   -1.1263  -20.7276   18.3626 C   0  0  0  0  0  0  0  0  0  0  0  0
   -1.8382  -22.0486   18.7010 C   0  0  0  0  0  0  0  0  0  0  0  0
   -1.9910  -19.5349   18.5350 N   0  0  0  0  0  0  0  0  0  0  0  0
   -1.3096  -18.2551   18.2901 C   0  0  0  0  0  0  0  0  0  0  0  0
   -0.9513  -17.4327   19.5487 C   0  0  0  0  0  0  0  0  0  0  0  0
   -0.5075  -18.3225   20.7447 C   0  0  0  0  0  0  0  0  0  0  0  0
   -0.0850  -17.3511   21.9659 N   0  0  0  0  0  0  0  0  0  0  0  0
    0.5179  -18.6168   22.4847 C   0  0  0  0  0  0  0  0  0  0  0  0
    0.8899  -16.2743   22.0279 C   0  0  0  0  0  0  0  0  0  0  0  0
    1.6912  -15.8957   21.2103 O   0  0  0  0  0  0  0  0  0  0  0  0
    0.8109  -15.5299   23.4250 C   0  0  0  0  0  0  0  0  0  0  0  0
    0.9117  -14.0537   23.4894 N   0  0  0  0  0  0  0  0  0  0  0  0
    0.6659  -13.1289   24.5839 C   0  0  0  0  0  0  0  0  0  0  0  0
    0.2420  -13.3219   25.6927 O   0  0  0  0  0  0  0  0  0  0  0  0
    0.9099  -11.5975   24.1842 C   0  0  0  0  0  0  0  0  0  0  0  0
    2.2016  -10.9665   24.6802 C   0  0  0  0  0  0  0  0  0  0  0  0
    1.8812   -9.4799   24.7488 C   0  0  0  0  0  0  0  0  0  0  0  0
    0.4560   -9.4543   25.2514 C   0  0  0  0  0  0  0  0  0  0  0  0
   -0.1536  -10.7384   24.8473 N   0  0  0  0  0  0  0  0  0  0  0  0
   -1.7564  -19.2611   21.0106 C   0  0  0  0  0  0  0  0  0  0  0  0
   -2.7076  -19.4544   19.8096 C   0  0  0  0  0  0  0  0  0  0  0  0
    0.0683  -20.0517   16.6328 H   0  0  0  0  0  0  0  0  0  0  0  0
   -0.0356  -21.7909   16.7996 H   0  0  0  0  0  0  0  0  0  0  0  0
   -1.4294  -20.8891   16.1994 H   0  0  0  0  0  0  0  0  0  0  0  0
   -0.2529  -20.6531   19.0211 H   0  0  0  0  0  0  0  0  0  0  0  0
   -2.1237  -22.1078   19.7551 H   0  0  0  0  0  0  0  0  0  0  0  0
   -1.1766  -22.9023   18.5134 H   0  0  0  0  0  0  0  0  0  0  0  0
   -2.7321  -22.1856   18.0848 H   0  0  0  0  0  0  0  0  0  0  0  0
   -0.3935  -18.3760   17.7057 H   0  0  0  0  0  0  0  0  0  0  0  0
   -1.9665  -17.6378   17.6641 H   0  0  0  0  0  0  0  0  0  0  0  0
   -1.8054  -16.8112   19.8466 H   0  0  0  0  0  0  0  0  0  0  0  0
   -0.1427  -16.7427   19.2866 H   0  0  0  0  0  0  0  0  0  0  0  0
    0.3539  -18.8679   20.3263 H   0  0  0  0  0  0  0  0  0  0  0  0
    1.3979  -18.9711   21.9282 H   0  0  0  0  0  0  0  0  0  0  0  0
    0.9593  -18.3374   23.4543 H   0  0  0  0  0  0  0  0  0  0  0  0
   -0.1905  -19.3955   22.7797 H   0  0  0  0  0  0  0  0  0  0  0  0
    1.6392  -15.9140   24.0315 H   0  0  0  0  0  0  0  0  0  0  0  0
   -0.1102  -15.8032   23.9476 H   0  0  0  0  0  0  0  0  0  0  0  0
    1.1949  -13.5280   22.6681 H   0  0  0  0  0  0  0  0  0  0  0  0
    0.8161  -11.4773   23.0999 H   0  0  0  0  0  0  0  0  0  0  0  0
    2.4685  -11.3481   25.6735 H   0  0  0  0  0  0  0  0  0  0  0  0
    3.0407  -11.1701   24.0078 H   0  0  0  0  0  0  0  0  0  0  0  0
    1.9378   -9.0427   23.7447 H   0  0  0  0  0  0  0  0  0  0  0  0
    2.5703   -8.9374   25.4022 H   0  0  0  0  0  0  0  0  0  0  0  0
    0.4383   -9.3756   26.3444 H   0  0  0  0  0  0  0  0  0  0  0  0
   -0.1048   -8.6082   24.8442 H   0  0  0  0  0  0  0  0  0  0  0  0
   -0.3992  -11.2444   25.7122 H   0  0  0  0  0  0  0  0  0  0  0  0
   -2.3405  -18.8679   21.8515 H   0  0  0  0  0  0  0  0  0  0  0  0
   -1.3916  -20.2499   21.3152 H   0  0  0  0  0  0  0  0  0  0  0  0
   -3.4108  -18.6107   19.7682 H   0  0  0  0  0  0  0  0  0  0  0  0
   -3.3507  -20.3236   19.9782 H   0  0  0  0  0  0  0  0  0  0  0  0
  1  2  1  0
  2  3  1  0
  2  4  1  0
  4  5  1  0
  5  6  1  0
  6  7  1  0
  7  8  1  0
  8  9  1  0
  8 10  1  0
 10 11  2  0
 10 12  1  0
 12 13  1  0
 13 14  1  0
 14 15  2  0
 14 16  1  0
 16 17  1  0
 17 18  1  0
 18 19  1  0
 19 20  1  0
  7 21  1  0
 21 22  1  0
 22  4  1  0
 20 16  1  0
  1 23  1  0
  1 24  1  0
  1 25  1  0
  2 26  1  0
  3 27  1  0
  3 28  1  0
  3 29  1  0
  5 30  1  0
  5 31  1  0
  6 32  1  0
  6 33  1  0
  7 34  1  0
  9 35  1  0
  9 36  1  0
  9 37  1  0
 12 38  1  0
 12 39  1  0
 13 40  1  0
 16 41  1  0
 17 42  1  0
 17 43  1  0
 18 44  1  0
 18 45  1  0
 19 46  1  0
 19 47  1  0
 20 48  1  0
 21 49  1  0
 21 50  1  0
 22 51  1  0
 22 52  1  0
M  END
>  <Energy>  (983) 
145.77081627790167

>  <compound_id>  (983) 
21698

>  <target_id>  (983) 
1

>  <reference_id>  (983) 
30

>  <inspiration_ids>  (983) 
[44, 30]

>  <energy_score>  (983) 
58.11598117981612

>  <distance_score>  (983) 
14.954986902599082

>  <path>  (983) 
/opt/xchem-fragalysis-2/maxwin/BulkDock/SCRATCH/511015/C21698-P30/C21698-P30.minimised.mol

>  <scratch_subdir>  (983) 
/opt/xchem-fragalysis-2/maxwin/BulkDock/SCRATCH/511015/C21698-P30

>  <fragmenstein_runtime>  (983) 
27.48661994934082

>  <fragmenstein_outcome>  (983) 
too moved

>  <fragmenstein_mode>  (983) 
expansion

>  <fragmenstein_error>  (983) 


$$$$
C21700-P44
     RDKit          3D

 49 51  0  0  0  0  0  0  0  0999 V2000
  -12.5048  -22.8783   20.8841 C   0  0  0  0  0  0  0  0  0  0  0  0
  -12.8599  -22.4569   19.3840 C   0  0  0  0  0  0  0  0  0  0  0  0
  -13.6704  -24.1631   18.6719 C   0  0  0  0  0  0  0  0  0  0  0  0
  -12.7753  -21.0202   19.3745 N   0  0  0  0  0  0  0  0  0  0  0  0
  -11.4363  -20.4364   20.7283 C   0  0  0  0  0  0  0  0  0  0  0  0
  -10.3208  -20.3687   20.2133 O   0  0  0  0  0  0  0  0  0  0  0  0
  -11.3429  -19.6727   22.6373 C   0  0  0  0  0  0  0  0  0  0  0  0
  -10.2813  -18.4546   23.6002 C   0  0  0  0  0  0  0  0  0  0  0  0
  -10.0608  -16.5273   24.4420 C   0  0  0  0  0  0  0  0  0  0  0  0
   -8.6538  -14.7021   24.6470 C   0  0  0  0  0  0  0  0  0  0  0  0
   -8.1527  -12.9855   23.0092 C   0  0  0  0  0  0  0  0  0  0  0  0
   -6.6902  -12.4398   22.9899 C   0  0  0  0  0  0  0  0  0  0  0  0
   -6.0776  -13.6998   23.7534 C   0  0  0  0  0  0  0  0  0  0  0  0
   -7.1065  -15.0731   24.5654 N   0  0  0  0  0  0  0  0  0  0  0  0
  -11.5904  -16.8885   24.2052 N   0  0  0  0  0  0  0  0  0  0  0  0
  -12.0954  -18.4902   23.7110 N   0  0  0  0  0  0  0  0  0  0  0  0
  -12.7257  -21.3773   17.2264 C   0  0  0  0  0  0  0  0  0  0  0  0
  -10.6157  -21.6559   16.1398 C   0  0  0  0  0  0  0  0  0  0  0  0
  -10.5687  -23.0458   14.7670 C   0  0  0  0  0  0  0  0  0  0  0  0
  -11.8849  -23.7035   13.9588 N   0  0  0  0  0  0  0  0  0  0  0  0
  -13.3843  -23.9293   14.6643 C   0  0  0  0  0  0  0  0  0  0  0  0
  -13.9295  -22.8156   16.1723 C   0  0  0  0  0  0  0  0  0  0  0  0
  -11.5148  -22.5409   21.2139 H   0  0  0  0  0  0  0  0  0  0  0  0
  -12.3201  -23.9526   20.9701 H   0  0  0  0  0  0  0  0  0  0  0  0
  -13.1701  -22.4655   21.6479 H   0  0  0  0  0  0  0  0  0  0  0  0
  -13.4555  -22.3465   18.5308 H   0  0  0  0  0  0  0  0  0  0  0  0
  -14.7449  -24.1435   18.4921 H   0  0  0  0  0  0  0  0  0  0  0  0
  -13.4314  -24.5043   17.6526 H   0  0  0  0  0  0  0  0  0  0  0  0
  -13.4554  -24.9646   19.3925 H   0  0  0  0  0  0  0  0  0  0  0  0
   -9.3139  -18.8525   23.2174 H   0  0  0  0  0  0  0  0  0  0  0  0
   -8.6191  -14.6294   25.7682 H   0  0  0  0  0  0  0  0  0  0  0  0
   -9.0118  -12.8388   22.0177 H   0  0  0  0  0  0  0  0  0  0  0  0
   -8.5701  -11.8738   22.8309 H   0  0  0  0  0  0  0  0  0  0  0  0
   -6.5097  -12.2282   21.9647 H   0  0  0  0  0  0  0  0  0  0  0  0
   -6.6547  -11.5204   23.5769 H   0  0  0  0  0  0  0  0  0  0  0  0
   -6.0744  -12.9684   24.5535 H   0  0  0  0  0  0  0  0  0  0  0  0
   -5.1110  -14.1492   23.5883 H   0  0  0  0  0  0  0  0  0  0  0  0
   -6.8627  -15.8792   23.9632 H   0  0  0  0  0  0  0  0  0  0  0  0
  -13.1005  -18.5413   23.6976 H   0  0  0  0  0  0  0  0  0  0  0  0
  -11.1273  -21.3043   16.4924 H   0  0  0  0  0  0  0  0  0  0  0  0
   -9.6571  -21.8166   16.7191 H   0  0  0  0  0  0  0  0  0  0  0  0
  -10.2081  -20.8305   15.3489 H   0  0  0  0  0  0  0  0  0  0  0  0
   -9.9286  -22.6296   13.9784 H   0  0  0  0  0  0  0  0  0  0  0  0
  -10.0429  -23.8996   15.1994 H   0  0  0  0  0  0  0  0  0  0  0  0
  -12.0443  -23.0700   13.1697 H   0  0  0  0  0  0  0  0  0  0  0  0
  -13.3997  -24.9673   15.0330 H   0  0  0  0  0  0  0  0  0  0  0  0
  -14.1391  -23.8321   13.8718 H   0  0  0  0  0  0  0  0  0  0  0  0
  -14.0991  -22.3480   15.1779 H   0  0  0  0  0  0  0  0  0  0  0  0
  -14.7155  -23.4232   16.6254 H   0  0  0  0  0  0  0  0  0  0  0  0
  1  2  1  0
  2  3  1  0
  2  4  1  0
  4  5  1  0
  5  6  2  0
  5  7  1  0
  7  8  2  0
  8  9  1  0
  9 10  1  0
 10 11  1  0
 11 12  1  0
 12 13  1  0
 13 14  1  0
  9 15  2  0
 15 16  1  0
  4 17  1  0
 17 18  1  0
 18 19  1  0
 19 20  1  0
 20 21  1  0
 21 22  1  0
 16  7  1  0
 22 17  1  0
 14 10  1  0
  1 23  1  0
  1 24  1  0
  1 25  1  0
  2 26  1  0
  3 27  1  0
  3 28  1  0
  3 29  1  0
  8 30  1  0
 10 31  1  0
 11 32  1  0
 11 33  1  0
 12 34  1  0
 12 35  1  0
 13 36  1  0
 13 37  1  0
 14 38  1  0
 16 39  1  0
 17 40  1  0
 18 41  1  0
 18 42  1  0
 19 43  1  0
 19 44  1  0
 20 45  1  0
 21 46  1  0
 21 47  1  0
 22 48  1  0
 22 49  1  0
M  END
>  <Energy>  (984) 
2728.2202332814645

>  <compound_id>  (984) 
21700

>  <target_id>  (984) 
1

>  <reference_id>  (984) 
44

>  <inspiration_ids>  (984) 
[44, 30]

>  <energy_score>  (984) 
2663.1289008254935

>  <distance_score>  (984) 
12.447333172720493

>  <path>  (984) 
/opt/xchem-fragalysis-2/maxwin/BulkDock/SCRATCH/511015/C21700-P44/C21700-P44.minimised.mol

>  <scratch_subdir>  (984) 
/opt/xchem-fragalysis-2/maxwin/BulkDock/SCRATCH/511015/C21700-P44

>  <fragmenstein_runtime>  (984) 
15.440335035324097

>  <fragmenstein_outcome>  (984) 
too moved

>  <fragmenstein_mode>  (984) 
expansion

>  <fragmenstein_error>  (984) 


$$$$
C21700-P30
     RDKit          3D

 49 51  0  0  0  0  0  0  0  0999 V2000
   -6.9753  -13.9424   12.0914 C   0  0  0  0  0  0  0  0  0  0  0  0
   -5.8783  -14.9914   11.7517 C   0  0  0  0  0  0  0  0  0  0  0  0
   -6.1784  -15.0363   10.2304 C   0  0  0  0  0  0  0  0  0  0  0  0
   -5.8836  -16.1621   12.8982 N   0  0  0  0  0  0  0  0  0  0  0  0
   -7.2475  -16.4187   13.3408 C   0  0  0  0  0  0  0  0  0  0  0  0
   -8.0540  -17.1939   12.9417 O   0  0  0  0  0  0  0  0  0  0  0  0
   -7.6155  -15.6378   14.5587 C   0  0  0  0  0  0  0  0  0  0  0  0
   -8.1185  -14.4018   14.9102 C   0  0  0  0  0  0  0  0  0  0  0  0
   -7.3610  -13.7901   16.6040 C   0  0  0  0  0  0  0  0  0  0  0  0
   -7.1735  -12.0832   17.7081 C   0  0  0  0  0  0  0  0  0  0  0  0
   -6.4114  -10.4871   16.9058 C   0  0  0  0  0  0  0  0  0  0  0  0
   -7.1965   -8.9492   17.1826 C   0  0  0  0  0  0  0  0  0  0  0  0
   -8.1205   -9.6108   18.6929 C   0  0  0  0  0  0  0  0  0  0  0  0
   -7.7658  -11.4018   18.7891 N   0  0  0  0  0  0  0  0  0  0  0  0
   -6.8086  -15.0512   16.7425 N   0  0  0  0  0  0  0  0  0  0  0  0
   -7.1845  -16.0142   15.8322 N   0  0  0  0  0  0  0  0  0  0  0  0
   -4.9838  -16.9108   11.8291 C   0  0  0  0  0  0  0  0  0  0  0  0
   -4.7654  -17.2528   10.3228 C   0  0  0  0  0  0  0  0  0  0  0  0
   -3.8246  -18.4416   10.0749 C   0  0  0  0  0  0  0  0  0  0  0  0
   -4.4486  -19.6854   10.4772 N   0  0  0  0  0  0  0  0  0  0  0  0
   -5.2044  -19.5274   11.7107 C   0  0  0  0  0  0  0  0  0  0  0  0
   -4.7865  -18.3116   12.5452 C   0  0  0  0  0  0  0  0  0  0  0  0
   -6.8698  -13.5434   13.0729 H   0  0  0  0  0  0  0  0  0  0  0  0
   -6.8823  -13.0422   11.4669 H   0  0  0  0  0  0  0  0  0  0  0  0
   -7.9922  -14.3244   11.9633 H   0  0  0  0  0  0  0  0  0  0  0  0
   -4.9180  -14.4731   11.9003 H   0  0  0  0  0  0  0  0  0  0  0  0
   -6.6675  -15.9087    9.8718 H   0  0  0  0  0  0  0  0  0  0  0  0
   -6.8148  -14.2193    9.8610 H   0  0  0  0  0  0  0  0  0  0  0  0
   -5.2634  -14.8404    9.6624 H   0  0  0  0  0  0  0  0  0  0  0  0
   -8.7670  -13.7379   14.3248 H   0  0  0  0  0  0  0  0  0  0  0  0
   -6.2344  -12.4459   18.1782 H   0  0  0  0  0  0  0  0  0  0  0  0
   -5.3660  -10.5663   17.1910 H   0  0  0  0  0  0  0  0  0  0  0  0
   -6.1400  -10.2593   15.8853 H   0  0  0  0  0  0  0  0  0  0  0  0
   -6.4461   -8.1762   17.4368 H   0  0  0  0  0  0  0  0  0  0  0  0
   -7.6277   -8.5153   16.2752 H   0  0  0  0  0  0  0  0  0  0  0  0
   -9.1277   -9.6974   18.9870 H   0  0  0  0  0  0  0  0  0  0  0  0
   -7.8885   -8.8518   19.4248 H   0  0  0  0  0  0  0  0  0  0  0  0
   -7.4116  -11.6727   19.6972 H   0  0  0  0  0  0  0  0  0  0  0  0
   -6.9018  -16.9393   16.0799 H   0  0  0  0  0  0  0  0  0  0  0  0
   -4.0223  -16.4161   12.0690 H   0  0  0  0  0  0  0  0  0  0  0  0
   -5.6590  -17.5079    9.7800 H   0  0  0  0  0  0  0  0  0  0  0  0
   -4.2520  -16.4299    9.8207 H   0  0  0  0  0  0  0  0  0  0  0  0
   -2.8722  -18.2909   10.5982 H   0  0  0  0  0  0  0  0  0  0  0  0
   -3.5876  -18.5028    9.0066 H   0  0  0  0  0  0  0  0  0  0  0  0
   -3.7300  -20.4007   10.6090 H   0  0  0  0  0  0  0  0  0  0  0  0
   -5.0562  -20.4527   12.2666 H   0  0  0  0  0  0  0  0  0  0  0  0
   -6.2706  -19.4748   11.4778 H   0  0  0  0  0  0  0  0  0  0  0  0
   -3.7261  -18.4205   12.8173 H   0  0  0  0  0  0  0  0  0  0  0  0
   -5.3104  -18.3149   13.5005 H   0  0  0  0  0  0  0  0  0  0  0  0
  1  2  1  0
  2  3  1  0
  2  4  1  0
  4  5  1  0
  5  6  2  0
  5  7  1  0
  7  8  2  0
  8  9  1  0
  9 10  1  0
 10 11  1  0
 11 12  1  0
 12 13  1  0
 13 14  1  0
  9 15  2  0
 15 16  1  0
  4 17  1  0
 17 18  1  0
 18 19  1  0
 19 20  1  0
 20 21  1  0
 21 22  1  0
 16  7  1  0
 22 17  1  0
 14 10  1  0
  1 23  1  0
  1 24  1  0
  1 25  1  0
  2 26  1  0
  3 27  1  0
  3 28  1  0
  3 29  1  0
  8 30  1  0
 10 31  1  0
 11 32  1  0
 11 33  1  0
 12 34  1  0
 12 35  1  0
 13 36  1  0
 13 37  1  0
 14 38  1  0
 16 39  1  0
 17 40  1  0
 18 41  1  0
 18 42  1  0
 19 43  1  0
 19 44  1  0
 20 45  1  0
 21 46  1  0
 21 47  1  0
 22 48  1  0
 22 49  1  0
M  END
>  <Energy>  (985) 
539.37370438368384

>  <compound_id>  (985) 
21700

>  <target_id>  (985) 
1

>  <reference_id>  (985) 
30

>  <inspiration_ids>  (985) 
[44, 30]

>  <energy_score>  (985) 
474.2823719276945

>  <distance_score>  (985) 
13.898625640064534

>  <path>  (985) 
/opt/xchem-fragalysis-2/maxwin/BulkDock/SCRATCH/511015/C21700-P30/C21700-P30.minimised.mol

>  <scratch_subdir>  (985) 
/opt/xchem-fragalysis-2/maxwin/BulkDock/SCRATCH/511015/C21700-P30

>  <fragmenstein_runtime>  (985) 
21.381325721740723

>  <fragmenstein_outcome>  (985) 
too moved

>  <fragmenstein_mode>  (985) 
expansion

>  <fragmenstein_error>  (985) 


$$$$
C21701-P44
     RDKit          3D

 50 52  0  0  0  0  0  0  0  0999 V2000
   -9.9497  -24.4084   14.1264 C   0  0  0  0  0  0  0  0  0  0  0  0
   -9.6331  -22.7214   13.9481 C   0  0  0  0  0  0  0  0  0  0  0  0
   -9.0107  -22.5714   15.2386 C   0  0  0  0  0  0  0  0  0  0  0  0
  -10.7957  -21.8978   14.2148 N   0  0  0  0  0  0  0  0  0  0  0  0
  -10.4502  -20.1212   14.2926 C   0  0  0  0  0  0  0  0  0  0  0  0
  -10.5582  -19.5791   13.2597 O   0  0  0  0  0  0  0  0  0  0  0  0
  -10.0628  -18.7595   15.7147 C   0  0  0  0  0  0  0  0  0  0  0  0
   -9.6228  -18.4424   17.2055 C   0  0  0  0  0  0  0  0  0  0  0  0
   -8.4745  -17.0800   17.6216 N   0  0  0  0  0  0  0  0  0  0  0  0
   -7.6549  -15.9395   16.7412 C   0  0  0  0  0  0  0  0  0  0  0  0
   -7.1502  -14.1355   16.8807 C   0  0  0  0  0  0  0  0  0  0  0  0
   -8.0056  -12.9246   17.7811 C   0  0  0  0  0  0  0  0  0  0  0  0
   -7.1211  -12.1295   18.6251 C   0  0  0  0  0  0  0  0  0  0  0  0
   -5.7799  -12.1314   18.0497 C   0  0  0  0  0  0  0  0  0  0  0  0
   -5.7852  -13.3735   17.3067 N   0  0  0  0  0  0  0  0  0  0  0  0
   -7.7982  -16.1375   15.4368 N   0  0  0  0  0  0  0  0  0  0  0  0
   -8.7206  -17.5657   15.2284 C   0  0  0  0  0  0  0  0  0  0  0  0
  -11.3551  -22.8740   12.9856 C   0  0  0  0  0  0  0  0  0  0  0  0
  -10.6931  -23.4149   11.6906 C   0  0  0  0  0  0  0  0  0  0  0  0
  -11.5093  -24.5350   10.9976 C   0  0  0  0  0  0  0  0  0  0  0  0
  -11.8434  -25.5987   11.9229 N   0  0  0  0  0  0  0  0  0  0  0  0
  -12.7826  -25.1650   12.9354 C   0  0  0  0  0  0  0  0  0  0  0  0
  -12.7541  -23.6593   13.2022 C   0  0  0  0  0  0  0  0  0  0  0  0
   -9.7355  -24.9968   13.2372 H   0  0  0  0  0  0  0  0  0  0  0  0
  -10.9501  -24.5721   14.5159 H   0  0  0  0  0  0  0  0  0  0  0  0
   -9.4032  -24.9749   14.8719 H   0  0  0  0  0  0  0  0  0  0  0  0
   -8.9717  -22.3981   13.1363 H   0  0  0  0  0  0  0  0  0  0  0  0
   -7.9913  -22.3241   15.0487 H   0  0  0  0  0  0  0  0  0  0  0  0
   -9.5211  -21.8927   15.9171 H   0  0  0  0  0  0  0  0  0  0  0  0
   -9.0335  -23.4871   15.7812 H   0  0  0  0  0  0  0  0  0  0  0  0
   -9.4768  -19.4232   17.7111 H   0  0  0  0  0  0  0  0  0  0  0  0
   -7.2349  -14.1053   15.8407 H   0  0  0  0  0  0  0  0  0  0  0  0
   -8.6455  -13.2153   18.6156 H   0  0  0  0  0  0  0  0  0  0  0  0
   -8.4348  -12.2678   17.0560 H   0  0  0  0  0  0  0  0  0  0  0  0
   -7.0581  -12.6144   19.5776 H   0  0  0  0  0  0  0  0  0  0  0  0
   -7.5692  -11.1664   18.7618 H   0  0  0  0  0  0  0  0  0  0  0  0
   -4.9485  -12.1089   18.7699 H   0  0  0  0  0  0  0  0  0  0  0  0
   -5.6391  -11.2448   17.4146 H   0  0  0  0  0  0  0  0  0  0  0  0
   -4.8872  -13.5106   16.9097 H   0  0  0  0  0  0  0  0  0  0  0  0
   -8.1319  -17.7231   16.0976 H   0  0  0  0  0  0  0  0  0  0  0  0
  -11.7758  -21.9900   12.5992 H   0  0  0  0  0  0  0  0  0  0  0  0
   -9.6965  -23.8273   11.8141 H   0  0  0  0  0  0  0  0  0  0  0  0
  -10.5449  -22.5550   11.0482 H   0  0  0  0  0  0  0  0  0  0  0  0
  -12.4051  -24.1436   10.5035 H   0  0  0  0  0  0  0  0  0  0  0  0
  -10.9047  -25.0056   10.2160 H   0  0  0  0  0  0  0  0  0  0  0  0
  -12.2183  -26.4055   11.4227 H   0  0  0  0  0  0  0  0  0  0  0  0
  -13.7997  -25.4367   12.6239 H   0  0  0  0  0  0  0  0  0  0  0  0
  -12.6009  -25.7291   13.8562 H   0  0  0  0  0  0  0  0  0  0  0  0
  -13.4658  -23.2418   12.4823 H   0  0  0  0  0  0  0  0  0  0  0  0
  -13.2442  -23.5008   14.1559 H   0  0  0  0  0  0  0  0  0  0  0  0
  1  2  1  0
  2  3  1  0
  2  4  1  0
  4  5  1  0
  5  6  2  0
  5  7  1  0
  7  8  2  0
  8  9  1  0
  9 10  2  0
 10 11  1  0
 11 12  1  0
 12 13  1  0
 13 14  1  0
 14 15  1  0
 10 16  1  0
 16 17  2  0
  4 18  1  0
 18 19  1  0
 19 20  1  0
 20 21  1  0
 21 22  1  0
 22 23  1  0
 17  7  1  0
 23 18  1  0
 15 11  1  0
  1 24  1  0
  1 25  1  0
  1 26  1  0
  2 27  1  0
  3 28  1  0
  3 29  1  0
  3 30  1  0
  8 31  1  0
 11 32  1  0
 12 33  1  0
 12 34  1  0
 13 35  1  0
 13 36  1  0
 14 37  1  0
 14 38  1  0
 15 39  1  0
 17 40  1  0
 18 41  1  0
 19 42  1  0
 19 43  1  0
 20 44  1  0
 20 45  1  0
 21 46  1  0
 22 47  1  0
 22 48  1  0
 23 49  1  0
 23 50  1  0
M  END
>  <Energy>  (986) 
841.45935968109734

>  <compound_id>  (986) 
21701

>  <target_id>  (986) 
1

>  <reference_id>  (986) 
44

>  <inspiration_ids>  (986) 
[44, 30]

>  <energy_score>  (986) 
739.0070533353146

>  <distance_score>  (986) 
12.228954839848639

>  <path>  (986) 
/opt/xchem-fragalysis-2/maxwin/BulkDock/SCRATCH/511015/C21701-P44/C21701-P44.minimised.mol

>  <scratch_subdir>  (986) 
/opt/xchem-fragalysis-2/maxwin/BulkDock/SCRATCH/511015/C21701-P44

>  <fragmenstein_runtime>  (986) 
34.952982902526855

>  <fragmenstein_outcome>  (986) 
too moved

>  <fragmenstein_mode>  (986) 
expansion

>  <fragmenstein_error>  (986) 


$$$$
C21701-P30
     RDKit          3D

 50 52  0  0  0  0  0  0  0  0999 V2000
  -15.9049  -21.1378   14.0456 C   0  0  0  0  0  0  0  0  0  0  0  0
  -14.2381  -21.1296   14.8071 C   0  0  0  0  0  0  0  0  0  0  0  0
  -13.9793  -22.7168   13.7861 C   0  0  0  0  0  0  0  0  0  0  0  0
  -13.3403  -21.2462   16.7254 N   0  0  0  0  0  0  0  0  0  0  0  0
  -13.4636  -20.0638   18.2195 C   0  0  0  0  0  0  0  0  0  0  0  0
  -14.2879  -20.2077   19.1251 O   0  0  0  0  0  0  0  0  0  0  0  0
  -12.4822  -18.2941   18.4955 C   0  0  0  0  0  0  0  0  0  0  0  0
  -11.0937  -17.4532   18.0256 C   0  0  0  0  0  0  0  0  0  0  0  0
   -9.8248  -16.0470   18.0836 N   0  0  0  0  0  0  0  0  0  0  0  0
  -10.0743  -15.2596   19.2132 C   0  0  0  0  0  0  0  0  0  0  0  0
   -9.1187  -13.6403   19.4150 C   0  0  0  0  0  0  0  0  0  0  0  0
   -8.8678  -12.5345   18.3604 C   0  0  0  0  0  0  0  0  0  0  0  0
   -7.6362  -11.6636   18.5123 C   0  0  0  0  0  0  0  0  0  0  0  0
   -6.8070  -12.5238   19.2365 C   0  0  0  0  0  0  0  0  0  0  0  0
   -7.7690  -13.4352   19.8253 N   0  0  0  0  0  0  0  0  0  0  0  0
  -11.7723  -15.5595   19.7358 N   0  0  0  0  0  0  0  0  0  0  0  0
  -12.7583  -17.0057   19.2806 C   0  0  0  0  0  0  0  0  0  0  0  0
  -14.3084  -23.0221   16.3476 C   0  0  0  0  0  0  0  0  0  0  0  0
  -14.1077  -24.1961   17.4549 C   0  0  0  0  0  0  0  0  0  0  0  0
  -13.7763  -25.5595   16.8261 C   0  0  0  0  0  0  0  0  0  0  0  0
  -14.5632  -25.8165   15.6266 N   0  0  0  0  0  0  0  0  0  0  0  0
  -15.8845  -25.2070   15.7089 C   0  0  0  0  0  0  0  0  0  0  0  0
  -15.8881  -23.6671   15.9564 C   0  0  0  0  0  0  0  0  0  0  0  0
  -16.7652  -21.4576   14.6295 H   0  0  0  0  0  0  0  0  0  0  0  0
  -16.2062  -20.1686   13.6516 H   0  0  0  0  0  0  0  0  0  0  0  0
  -15.9294  -21.7630   13.1500 H   0  0  0  0  0  0  0  0  0  0  0  0
  -13.7941  -20.2250   14.3938 H   0  0  0  0  0  0  0  0  0  0  0  0
  -13.0948  -23.3445   13.9846 H   0  0  0  0  0  0  0  0  0  0  0  0
  -14.8584  -23.3598   13.8052 H   0  0  0  0  0  0  0  0  0  0  0  0
  -13.8014  -22.6047   12.7488 H   0  0  0  0  0  0  0  0  0  0  0  0
  -10.2422  -18.1565   17.6567 H   0  0  0  0  0  0  0  0  0  0  0  0
   -9.6081  -13.2545   20.2599 H   0  0  0  0  0  0  0  0  0  0  0  0
   -9.8534  -12.1119   18.1352 H   0  0  0  0  0  0  0  0  0  0  0  0
   -8.3609  -12.9125   17.4770 H   0  0  0  0  0  0  0  0  0  0  0  0
   -7.1343  -11.3224   17.6143 H   0  0  0  0  0  0  0  0  0  0  0  0
   -7.8335  -10.7350   19.0250 H   0  0  0  0  0  0  0  0  0  0  0  0
   -5.9141  -12.7361   18.6579 H   0  0  0  0  0  0  0  0  0  0  0  0
   -6.4685  -12.0192   20.1309 H   0  0  0  0  0  0  0  0  0  0  0  0
   -8.0933  -12.7097   20.3897 H   0  0  0  0  0  0  0  0  0  0  0  0
  -13.7118  -16.8771   19.8086 H   0  0  0  0  0  0  0  0  0  0  0  0
  -13.8052  -23.4780   15.5511 H   0  0  0  0  0  0  0  0  0  0  0  0
  -15.0498  -24.3597   17.9942 H   0  0  0  0  0  0  0  0  0  0  0  0
  -13.4692  -23.9190   18.2573 H   0  0  0  0  0  0  0  0  0  0  0  0
  -12.7153  -25.6502   16.5759 H   0  0  0  0  0  0  0  0  0  0  0  0
  -13.9791  -26.3453   17.5635 H   0  0  0  0  0  0  0  0  0  0  0  0
  -14.0751  -25.5056   14.7881 H   0  0  0  0  0  0  0  0  0  0  0  0
  -16.4642  -25.7034   16.4982 H   0  0  0  0  0  0  0  0  0  0  0  0
  -16.4252  -25.4193   14.7788 H   0  0  0  0  0  0  0  0  0  0  0  0
  -16.3402  -23.2510   15.0666 H   0  0  0  0  0  0  0  0  0  0  0  0
  -16.5928  -23.5135   16.7847 H   0  0  0  0  0  0  0  0  0  0  0  0
  1  2  1  0
  2  3  1  0
  2  4  1  0
  4  5  1  0
  5  6  2  0
  5  7  1  0
  7  8  2  0
  8  9  1  0
  9 10  2  0
 10 11  1  0
 11 12  1  0
 12 13  1  0
 13 14  1  0
 14 15  1  0
 10 16  1  0
 16 17  2  0
  4 18  1  0
 18 19  1  0
 19 20  1  0
 20 21  1  0
 21 22  1  0
 22 23  1  0
 17  7  1  0
 23 18  1  0
 15 11  1  0
  1 24  1  0
  1 25  1  0
  1 26  1  0
  2 27  1  0
  3 28  1  0
  3 29  1  0
  3 30  1  0
  8 31  1  0
 11 32  1  0
 12 33  1  0
 12 34  1  0
 13 35  1  0
 13 36  1  0
 14 37  1  0
 14 38  1  0
 15 39  1  0
 17 40  1  0
 18 41  1  0
 19 42  1  0
 19 43  1  0
 20 44  1  0
 20 45  1  0
 21 46  1  0
 22 47  1  0
 22 48  1  0
 23 49  1  0
 23 50  1  0
M  END
>  <Energy>  (987) 
1112.499392253191

>  <compound_id>  (987) 
21701

>  <target_id>  (987) 
1

>  <reference_id>  (987) 
30

>  <inspiration_ids>  (987) 
[44, 30]

>  <energy_score>  (987) 
1010.0470859073972

>  <distance_score>  (987) 
12.541065309865774

>  <path>  (987) 
/opt/xchem-fragalysis-2/maxwin/BulkDock/SCRATCH/511015/C21701-P30/C21701-P30.minimised.mol

>  <scratch_subdir>  (987) 
/opt/xchem-fragalysis-2/maxwin/BulkDock/SCRATCH/511015/C21701-P30

>  <fragmenstein_runtime>  (987) 
29.37636113166809

>  <fragmenstein_outcome>  (987) 
too moved

>  <fragmenstein_mode>  (987) 
expansion

>  <fragmenstein_error>  (987) 


$$$$
C21702-P44
     RDKit          3D

 49 51  0  0  0  0  0  0  0  0999 V2000
   -8.0424  -14.9120   13.2072 C   0  0  0  0  0  0  0  0  0  0  0  0
   -8.4598  -15.4885   14.6344 C   0  0  0  0  0  0  0  0  0  0  0  0
   -9.3950  -16.6107   14.2886 C   0  0  0  0  0  0  0  0  0  0  0  0
   -7.3758  -15.6682   16.1255 N   0  0  0  0  0  0  0  0  0  0  0  0
   -8.3642  -15.9418   17.6172 C   0  0  0  0  0  0  0  0  0  0  0  0
   -8.5164  -17.0737   17.7841 O   0  0  0  0  0  0  0  0  0  0  0  0
   -9.1026  -14.9406   19.1392 C   0  0  0  0  0  0  0  0  0  0  0  0
   -9.4942  -13.3957   19.5217 C   0  0  0  0  0  0  0  0  0  0  0  0
   -9.8039  -12.8967   21.3104 C   0  0  0  0  0  0  0  0  0  0  0  0
   -8.7325  -12.2494   22.1680 C   0  0  0  0  0  0  0  0  0  0  0  0
   -8.2063  -10.5133   23.1734 C   0  0  0  0  0  0  0  0  0  0  0  0
   -8.5271   -8.4648   23.3374 C   0  0  0  0  0  0  0  0  0  0  0  0
   -7.4309   -6.8545   24.3243 C   0  0  0  0  0  0  0  0  0  0  0  0
   -7.1911   -8.6561   24.9826 C   0  0  0  0  0  0  0  0  0  0  0  0
   -7.1731  -10.4761   24.6577 N   0  0  0  0  0  0  0  0  0  0  0  0
   -8.0265  -13.2702   20.0358 S   0  0  0  0  0  0  0  0  0  0  0  0
   -6.5698  -16.7400   15.0770 C   0  0  0  0  0  0  0  0  0  0  0  0
   -5.3286  -16.8697   16.2356 C   0  0  0  0  0  0  0  0  0  0  0  0
   -3.8888  -17.2653   15.9407 C   0  0  0  0  0  0  0  0  0  0  0  0
   -3.7148  -18.0572   14.7522 N   0  0  0  0  0  0  0  0  0  0  0  0
   -4.1589  -17.2889   13.6290 C   0  0  0  0  0  0  0  0  0  0  0  0
   -5.6597  -17.0465   13.6724 C   0  0  0  0  0  0  0  0  0  0  0  0
   -7.3423  -14.0801   13.2338 H   0  0  0  0  0  0  0  0  0  0  0  0
   -8.9431  -14.5161   12.7135 H   0  0  0  0  0  0  0  0  0  0  0  0
   -7.6723  -15.6666   12.5091 H   0  0  0  0  0  0  0  0  0  0  0  0
   -9.0833  -14.6220   14.7983 H   0  0  0  0  0  0  0  0  0  0  0  0
   -9.4990  -17.2430   15.1641 H   0  0  0  0  0  0  0  0  0  0  0  0
   -9.0295  -17.1043   13.3877 H   0  0  0  0  0  0  0  0  0  0  0  0
  -10.3815  -16.2435   13.9827 H   0  0  0  0  0  0  0  0  0  0  0  0
  -10.1611  -12.9045   18.7880 H   0  0  0  0  0  0  0  0  0  0  0  0
  -10.8706  -12.8769   21.6080 H   0  0  0  0  0  0  0  0  0  0  0  0
   -7.2487  -10.9080   22.8802 H   0  0  0  0  0  0  0  0  0  0  0  0
   -9.6288   -8.3912   23.2237 H   0  0  0  0  0  0  0  0  0  0  0  0
   -8.3488   -7.8864   22.4593 H   0  0  0  0  0  0  0  0  0  0  0  0
   -7.4117   -6.1230   25.2622 H   0  0  0  0  0  0  0  0  0  0  0  0
   -6.6117   -6.2322   23.7589 H   0  0  0  0  0  0  0  0  0  0  0  0
   -6.4560   -7.7521   25.7926 H   0  0  0  0  0  0  0  0  0  0  0  0
   -7.5344   -8.9636   26.1286 H   0  0  0  0  0  0  0  0  0  0  0  0
   -7.6780  -10.8517   25.4726 H   0  0  0  0  0  0  0  0  0  0  0  0
   -6.8147  -16.1241   14.2977 H   0  0  0  0  0  0  0  0  0  0  0  0
   -5.6707  -17.5349   17.0477 H   0  0  0  0  0  0  0  0  0  0  0  0
   -5.2635  -16.0164   16.8884 H   0  0  0  0  0  0  0  0  0  0  0  0
   -3.2569  -16.3693   15.8916 H   0  0  0  0  0  0  0  0  0  0  0  0
   -3.5050  -17.8367   16.7951 H   0  0  0  0  0  0  0  0  0  0  0  0
   -2.7298  -18.3008   14.6438 H   0  0  0  0  0  0  0  0  0  0  0  0
   -3.9309  -17.8476   12.7122 H   0  0  0  0  0  0  0  0  0  0  0  0
   -3.5946  -16.3559   13.5324 H   0  0  0  0  0  0  0  0  0  0  0  0
   -6.1045  -17.9318   13.2169 H   0  0  0  0  0  0  0  0  0  0  0  0
   -5.7887  -16.2743   12.8930 H   0  0  0  0  0  0  0  0  0  0  0  0
  1  2  1  0
  2  3  1  0
  2  4  1  0
  4  5  1  0
  5  6  2  0
  5  7  1  0
  7  8  2  0
  8  9  1  0
  9 10  2  0
 10 11  1  0
 11 12  1  0
 12 13  1  0
 13 14  1  0
 14 15  1  0
 10 16  1  0
  4 17  1  0
 17 18  1  0
 18 19  1  0
 19 20  1  0
 20 21  1  0
 21 22  1  0
 16  7  1  0
 22 17  1  0
 15 11  1  0
  1 23  1  0
  1 24  1  0
  1 25  1  0
  2 26  1  0
  3 27  1  0
  3 28  1  0
  3 29  1  0
  8 30  1  0
  9 31  1  0
 11 32  1  0
 12 33  1  0
 12 34  1  0
 13 35  1  0
 13 36  1  0
 14 37  1  0
 14 38  1  0
 15 39  1  0
 17 40  1  0
 18 41  1  0
 18 42  1  0
 19 43  1  0
 19 44  1  0
 20 45  1  0
 21 46  1  0
 21 47  1  0
 22 48  1  0
 22 49  1  0
M  END
>  <Energy>  (988) 
1523.563950012767

>  <compound_id>  (988) 
21702

>  <target_id>  (988) 
1

>  <reference_id>  (988) 
44

>  <inspiration_ids>  (988) 
[44, 30]

>  <energy_score>  (988) 
1462.473267617684

>  <distance_score>  (988) 
12.201967698024095

>  <path>  (988) 
/opt/xchem-fragalysis-2/maxwin/BulkDock/SCRATCH/511015/C21702-P44/C21702-P44.minimised.mol

>  <scratch_subdir>  (988) 
/opt/xchem-fragalysis-2/maxwin/BulkDock/SCRATCH/511015/C21702-P44

>  <fragmenstein_runtime>  (988) 
27.697457551956177

>  <fragmenstein_outcome>  (988) 
too moved

>  <fragmenstein_mode>  (988) 
expansion

>  <fragmenstein_error>  (988) 


$$$$
C21702-P30
     RDKit          3D

 49 51  0  0  0  0  0  0  0  0999 V2000
  -12.7611  -17.6604   16.8400 C   0  0  0  0  0  0  0  0  0  0  0  0
  -11.5343  -17.4089   18.0586 C   0  0  0  0  0  0  0  0  0  0  0  0
  -12.8226  -16.9813   19.0840 C   0  0  0  0  0  0  0  0  0  0  0  0
   -9.9075  -16.6443   17.3194 N   0  0  0  0  0  0  0  0  0  0  0  0
   -8.7867  -15.8103   18.4317 C   0  0  0  0  0  0  0  0  0  0  0  0
   -7.9901  -16.5419   18.8551 O   0  0  0  0  0  0  0  0  0  0  0  0
   -8.4006  -13.9817   19.0256 C   0  0  0  0  0  0  0  0  0  0  0  0
   -8.4297  -12.5846   18.7634 C   0  0  0  0  0  0  0  0  0  0  0  0
   -6.8383  -12.3709   19.5835 C   0  0  0  0  0  0  0  0  0  0  0  0
   -5.2011  -12.3020   19.2068 C   0  0  0  0  0  0  0  0  0  0  0  0
   -4.0816  -10.8991   20.0931 C   0  0  0  0  0  0  0  0  0  0  0  0
   -3.1124   -9.6136   19.2080 C   0  0  0  0  0  0  0  0  0  0  0  0
   -3.0851   -8.0747   19.8855 C   0  0  0  0  0  0  0  0  0  0  0  0
   -3.5554   -8.1843   21.6738 C   0  0  0  0  0  0  0  0  0  0  0  0
   -3.7887   -9.9717   21.7448 N   0  0  0  0  0  0  0  0  0  0  0  0
   -7.0693  -12.3815   18.1608 S   0  0  0  0  0  0  0  0  0  0  0  0
   -9.9411  -18.2646   16.6639 C   0  0  0  0  0  0  0  0  0  0  0  0
   -9.3607  -20.0915   17.2502 C   0  0  0  0  0  0  0  0  0  0  0  0
   -9.6831  -21.4386   15.8743 C   0  0  0  0  0  0  0  0  0  0  0  0
  -10.1200  -21.1320   14.5076 N   0  0  0  0  0  0  0  0  0  0  0  0
  -10.6421  -19.7988   14.0811 C   0  0  0  0  0  0  0  0  0  0  0  0
  -10.5833  -18.2110   14.9895 C   0  0  0  0  0  0  0  0  0  0  0  0
  -13.0908  -18.6602   16.7692 H   0  0  0  0  0  0  0  0  0  0  0  0
  -13.6911  -17.1000   16.9377 H   0  0  0  0  0  0  0  0  0  0  0  0
  -12.5139  -17.1945   15.9077 H   0  0  0  0  0  0  0  0  0  0  0  0
  -11.2316  -18.1534   18.6797 H   0  0  0  0  0  0  0  0  0  0  0  0
  -13.1147  -17.8833   19.6340 H   0  0  0  0  0  0  0  0  0  0  0  0
  -12.7167  -16.1384   19.7414 H   0  0  0  0  0  0  0  0  0  0  0  0
  -13.7708  -16.6776   18.6305 H   0  0  0  0  0  0  0  0  0  0  0  0
   -9.3333  -12.0220   18.9123 H   0  0  0  0  0  0  0  0  0  0  0  0
   -6.7108  -11.9456   20.5849 H   0  0  0  0  0  0  0  0  0  0  0  0
   -4.9132  -10.9649   20.7359 H   0  0  0  0  0  0  0  0  0  0  0  0
   -3.2626   -9.5601   18.1162 H   0  0  0  0  0  0  0  0  0  0  0  0
   -2.0549   -9.9103   19.1638 H   0  0  0  0  0  0  0  0  0  0  0  0
   -3.4590   -7.2968   19.2350 H   0  0  0  0  0  0  0  0  0  0  0  0
   -2.0382   -7.7048   19.8135 H   0  0  0  0  0  0  0  0  0  0  0  0
   -2.8089   -7.8239   22.3960 H   0  0  0  0  0  0  0  0  0  0  0  0
   -4.4358   -7.6267   21.9679 H   0  0  0  0  0  0  0  0  0  0  0  0
   -3.7987  -10.5250   22.5846 H   0  0  0  0  0  0  0  0  0  0  0  0
  -10.9471  -18.1783   16.5020 H   0  0  0  0  0  0  0  0  0  0  0  0
   -9.4866  -20.2006   18.3138 H   0  0  0  0  0  0  0  0  0  0  0  0
   -8.2881  -20.2161   17.5713 H   0  0  0  0  0  0  0  0  0  0  0  0
   -8.8515  -22.1134   15.5288 H   0  0  0  0  0  0  0  0  0  0  0  0
   -9.9376  -22.3895   16.2745 H   0  0  0  0  0  0  0  0  0  0  0  0
  -10.3276  -21.9133   13.8962 H   0  0  0  0  0  0  0  0  0  0  0  0
  -10.1666  -19.5880   13.1312 H   0  0  0  0  0  0  0  0  0  0  0  0
  -11.6490  -20.0070   13.7594 H   0  0  0  0  0  0  0  0  0  0  0  0
  -10.0784  -17.3515   14.4702 H   0  0  0  0  0  0  0  0  0  0  0  0
  -11.5350  -17.7784   14.7665 H   0  0  0  0  0  0  0  0  0  0  0  0
  1  2  1  0
  2  3  1  0
  2  4  1  0
  4  5  1  0
  5  6  2  0
  5  7  1  0
  7  8  2  0
  8  9  1  0
  9 10  2  0
 10 11  1  0
 11 12  1  0
 12 13  1  0
 13 14  1  0
 14 15  1  0
 10 16  1  0
  4 17  1  0
 17 18  1  0
 18 19  1  0
 19 20  1  0
 20 21  1  0
 21 22  1  0
 16  7  1  0
 22 17  1  0
 15 11  1  0
  1 23  1  0
  1 24  1  0
  1 25  1  0
  2 26  1  0
  3 27  1  0
  3 28  1  0
  3 29  1  0
  8 30  1  0
  9 31  1  0
 11 32  1  0
 12 33  1  0
 12 34  1  0
 13 35  1  0
 13 36  1  0
 14 37  1  0
 14 38  1  0
 15 39  1  0
 17 40  1  0
 18 41  1  0
 18 42  1  0
 19 43  1  0
 19 44  1  0
 20 45  1  0
 21 46  1  0
 21 47  1  0
 22 48  1  0
 22 49  1  0
M  END
>  <Energy>  (989) 
1424.6285024101039

>  <compound_id>  (989) 
21702

>  <target_id>  (989) 
1

>  <reference_id>  (989) 
30

>  <inspiration_ids>  (989) 
[44, 30]

>  <energy_score>  (989) 
1363.5378200150192

>  <distance_score>  (989) 
11.501758042923933

>  <path>  (989) 
/opt/xchem-fragalysis-2/maxwin/BulkDock/SCRATCH/511015/C21702-P30/C21702-P30.minimised.mol

>  <scratch_subdir>  (989) 
/opt/xchem-fragalysis-2/maxwin/BulkDock/SCRATCH/511015/C21702-P30

>  <fragmenstein_runtime>  (989) 
23.311697721481323

>  <fragmenstein_outcome>  (989) 
too moved

>  <fragmenstein_mode>  (989) 
expansion

>  <fragmenstein_error>  (989) 


$$$$
C21704-P44
     RDKit          3D

 55 56  0  0  0  0  0  0  0  0999 V2000
   -0.2930   -8.5834   25.0437 C   0  0  0  0  0  0  0  0  0  0  0  0
   -1.8966   -9.6007   25.3632 C   0  0  0  0  0  0  0  0  0  0  0  0
   -2.1164   -7.8517   25.9917 C   0  0  0  0  0  0  0  0  0  0  0  0
   -2.7579  -11.6053   25.1346 C   0  0  0  0  0  0  0  0  0  0  0  0
   -4.7860  -12.6396   24.2125 S   0  0  0  0  0  0  0  0  0  0  0  0
   -4.6507  -15.0250   23.2296 C   0  0  0  0  0  0  0  0  0  0  0  0
   -4.8790  -16.6367   21.6782 C   0  0  0  0  0  0  0  0  0  0  0  0
   -5.6500  -18.1088   20.2176 C   0  0  0  0  0  0  0  0  0  0  0  0
   -6.8412  -18.7542   18.6506 N   0  0  0  0  0  0  0  0  0  0  0  0
   -7.7273  -20.4359   18.2814 C   0  0  0  0  0  0  0  0  0  0  0  0
   -7.4268  -21.2220   19.0720 O   0  0  0  0  0  0  0  0  0  0  0  0
   -9.1829  -21.1497   17.1561 N   0  0  0  0  0  0  0  0  0  0  0  0
   -9.3032  -22.0395   15.7370 C   0  0  0  0  0  0  0  0  0  0  0  0
   -9.9776  -23.7012   15.1367 C   0  0  0  0  0  0  0  0  0  0  0  0
  -10.1807  -23.5324   13.6994 C   0  0  0  0  0  0  0  0  0  0  0  0
  -10.0281  -24.8433   12.9272 C   0  0  0  0  0  0  0  0  0  0  0  0
  -10.4610  -24.7392   11.4753 C   0  0  0  0  0  0  0  0  0  0  0  0
  -11.3680  -25.9291   11.2150 C   0  0  0  0  0  0  0  0  0  0  0  0
  -11.1072  -26.8427   12.3873 C   0  0  0  0  0  0  0  0  0  0  0  0
  -10.8987  -25.9021   13.4851 N   0  0  0  0  0  0  0  0  0  0  0  0
   -9.1676  -22.4321   13.6811 C   0  0  0  0  0  0  0  0  0  0  0  0
   -8.3878  -22.1678   15.4888 C   0  0  0  0  0  0  0  0  0  0  0  0
    0.5124   -9.1584   24.5273 H   0  0  0  0  0  0  0  0  0  0  0  0
   -0.4447   -7.6092   24.5336 H   0  0  0  0  0  0  0  0  0  0  0  0
    0.1992   -8.1641   25.9530 H   0  0  0  0  0  0  0  0  0  0  0  0
   -1.6520   -9.9296   26.3207 H   0  0  0  0  0  0  0  0  0  0  0  0
   -1.2684   -7.5462   26.6334 H   0  0  0  0  0  0  0  0  0  0  0  0
   -2.8112   -7.5962   26.7769 H   0  0  0  0  0  0  0  0  0  0  0  0
   -2.1135   -7.0726   25.2121 H   0  0  0  0  0  0  0  0  0  0  0  0
   -3.0359  -11.8169   26.2052 H   0  0  0  0  0  0  0  0  0  0  0  0
   -2.1181  -12.5104   25.2888 H   0  0  0  0  0  0  0  0  0  0  0  0
   -5.3229  -15.3048   23.9910 H   0  0  0  0  0  0  0  0  0  0  0  0
   -3.6987  -15.2144   23.7237 H   0  0  0  0  0  0  0  0  0  0  0  0
   -5.9172  -16.6144   21.3199 H   0  0  0  0  0  0  0  0  0  0  0  0
   -3.9458  -16.4779   21.1124 H   0  0  0  0  0  0  0  0  0  0  0  0
   -5.2169  -17.5749   19.3818 H   0  0  0  0  0  0  0  0  0  0  0  0
   -6.5931  -18.1621   20.7643 H   0  0  0  0  0  0  0  0  0  0  0  0
   -7.1923  -18.0744   17.9975 H   0  0  0  0  0  0  0  0  0  0  0  0
   -9.9701  -22.5085   16.4451 H   0  0  0  0  0  0  0  0  0  0  0  0
  -10.0578  -21.3101   15.2485 H   0  0  0  0  0  0  0  0  0  0  0  0
   -9.2924  -24.4974   15.3284 H   0  0  0  0  0  0  0  0  0  0  0  0
  -10.8447  -24.1624   15.5578 H   0  0  0  0  0  0  0  0  0  0  0  0
  -11.1746  -23.1224   13.4910 H   0  0  0  0  0  0  0  0  0  0  0  0
   -8.9986  -25.2048   12.9526 H   0  0  0  0  0  0  0  0  0  0  0  0
  -10.9964  -23.8090   11.2697 H   0  0  0  0  0  0  0  0  0  0  0  0
   -9.5779  -24.8133   10.8335 H   0  0  0  0  0  0  0  0  0  0  0  0
  -12.4154  -25.6028   11.2076 H   0  0  0  0  0  0  0  0  0  0  0  0
  -11.1581  -26.4087   10.2542 H   0  0  0  0  0  0  0  0  0  0  0  0
  -10.2077  -27.4492   12.2311 H   0  0  0  0  0  0  0  0  0  0  0  0
  -11.9459  -27.5169   12.5836 H   0  0  0  0  0  0  0  0  0  0  0  0
  -11.8001  -25.4934   13.7340 H   0  0  0  0  0  0  0  0  0  0  0  0
   -9.7465  -21.5737   13.3293 H   0  0  0  0  0  0  0  0  0  0  0  0
   -8.3440  -22.5561   12.9709 H   0  0  0  0  0  0  0  0  0  0  0  0
   -7.7411  -23.0523   15.7042 H   0  0  0  0  0  0  0  0  0  0  0  0
   -7.6418  -21.6504   14.7726 H   0  0  0  0  0  0  0  0  0  0  0  0
  1  2  1  0
  2  3  1  0
  2  4  1  0
  4  5  1  0
  5  6  1  0
  6  7  1  0
  7  8  1  0
  8  9  1  0
  9 10  1  0
 10 11  2  0
 10 12  1  0
 12 13  1  0
 13 14  1  0
 14 15  1  0
 15 16  1  0
 16 17  1  0
 17 18  1  0
 18 19  1  0
 19 20  1  0
 15 21  1  0
 21 22  1  0
 22 12  1  0
 20 16  1  0
  1 23  1  0
  1 24  1  0
  1 25  1  0
  2 26  1  0
  3 27  1  0
  3 28  1  0
  3 29  1  0
  4 30  1  0
  4 31  1  0
  6 32  1  0
  6 33  1  0
  7 34  1  0
  7 35  1  0
  8 36  1  0
  8 37  1  0
  9 38  1  0
 13 39  1  0
 13 40  1  0
 14 41  1  0
 14 42  1  0
 15 43  1  0
 16 44  1  0
 17 45  1  0
 17 46  1  0
 18 47  1  0
 18 48  1  0
 19 49  1  0
 19 50  1  0
 20 51  1  0
 21 52  1  0
 21 53  1  0
 22 54  1  0
 22 55  1  0
M  END
>  <Energy>  (990) 
2122.5140506481343

>  <compound_id>  (990) 
21704

>  <target_id>  (990) 
1

>  <reference_id>  (990) 
44

>  <inspiration_ids>  (990) 
[44, 30]

>  <energy_score>  (990) 
2124.077915305959

>  <distance_score>  (990) 
8.867700943350103

>  <path>  (990) 
/opt/xchem-fragalysis-2/maxwin/BulkDock/SCRATCH/511015/C21704-P44/C21704-P44.minimised.mol

>  <scratch_subdir>  (990) 
/opt/xchem-fragalysis-2/maxwin/BulkDock/SCRATCH/511015/C21704-P44

>  <fragmenstein_runtime>  (990) 
26.868890047073364

>  <fragmenstein_outcome>  (990) 
too moved

>  <fragmenstein_mode>  (990) 
expansion

>  <fragmenstein_error>  (990) 


$$$$
C21704-P30
     RDKit          3D

 55 56  0  0  0  0  0  0  0  0999 V2000
   -2.5501   -7.0993   23.1447 C   0  0  0  0  0  0  0  0  0  0  0  0
   -3.5256   -8.6302   22.5268 C   0  0  0  0  0  0  0  0  0  0  0  0
   -3.6379   -7.5219   21.0973 C   0  0  0  0  0  0  0  0  0  0  0  0
   -3.9265  -10.5546   23.2431 C   0  0  0  0  0  0  0  0  0  0  0  0
   -5.3510  -12.5663   24.0059 S   0  0  0  0  0  0  0  0  0  0  0  0
   -4.7542  -14.9672   23.2497 C   0  0  0  0  0  0  0  0  0  0  0  0
   -4.9083  -16.7226   21.8356 C   0  0  0  0  0  0  0  0  0  0  0  0
   -5.7197  -18.2440   20.4913 C   0  0  0  0  0  0  0  0  0  0  0  0
   -6.4588  -19.9545   19.6329 N   0  0  0  0  0  0  0  0  0  0  0  0
   -5.9258  -20.9483   18.0984 C   0  0  0  0  0  0  0  0  0  0  0  0
   -4.9518  -20.5652   17.5868 O   0  0  0  0  0  0  0  0  0  0  0  0
   -6.4939  -22.5523   17.2410 N   0  0  0  0  0  0  0  0  0  0  0  0
   -7.8006  -22.1704   15.6813 C   0  0  0  0  0  0  0  0  0  0  0  0
   -9.5797  -22.5279   14.8782 C   0  0  0  0  0  0  0  0  0  0  0  0
   -9.3268  -23.3404   13.6584 C   0  0  0  0  0  0  0  0  0  0  0  0
  -10.2581  -23.4568   12.4814 C   0  0  0  0  0  0  0  0  0  0  0  0
  -11.5973  -24.0991   12.8516 C   0  0  0  0  0  0  0  0  0  0  0  0
  -11.4361  -25.5618   12.5056 C   0  0  0  0  0  0  0  0  0  0  0  0
  -10.6089  -25.4825   11.2500 C   0  0  0  0  0  0  0  0  0  0  0  0
   -9.6458  -24.4029   11.5094 N   0  0  0  0  0  0  0  0  0  0  0  0
   -7.9954  -22.6344   13.6369 C   0  0  0  0  0  0  0  0  0  0  0  0
   -7.7069  -22.9678   15.6550 C   0  0  0  0  0  0  0  0  0  0  0  0
   -3.2580   -6.2575   23.1828 H   0  0  0  0  0  0  0  0  0  0  0  0
   -2.0146   -7.1476   24.1116 H   0  0  0  0  0  0  0  0  0  0  0  0
   -1.7571   -6.7911   22.4434 H   0  0  0  0  0  0  0  0  0  0  0  0
   -4.3163   -8.1547   22.9728 H   0  0  0  0  0  0  0  0  0  0  0  0
   -4.5520   -6.9228   21.1830 H   0  0  0  0  0  0  0  0  0  0  0  0
   -2.8654   -6.7483   21.0273 H   0  0  0  0  0  0  0  0  0  0  0  0
   -3.4843   -7.9680   20.0995 H   0  0  0  0  0  0  0  0  0  0  0  0
   -3.5652   -9.8540   23.9325 H   0  0  0  0  0  0  0  0  0  0  0  0
   -3.2942  -11.0936   23.9273 H   0  0  0  0  0  0  0  0  0  0  0  0
   -3.7247  -15.0291   23.6310 H   0  0  0  0  0  0  0  0  0  0  0  0
   -5.2489  -15.3314   24.1041 H   0  0  0  0  0  0  0  0  0  0  0  0
   -5.8978  -16.5982   21.3209 H   0  0  0  0  0  0  0  0  0  0  0  0
   -3.9853  -16.5446   21.2628 H   0  0  0  0  0  0  0  0  0  0  0  0
   -4.7879  -18.4687   20.0004 H   0  0  0  0  0  0  0  0  0  0  0  0
   -6.0416  -18.7561   21.4045 H   0  0  0  0  0  0  0  0  0  0  0  0
   -7.3515  -20.3122   19.9467 H   0  0  0  0  0  0  0  0  0  0  0  0
   -7.3495  -21.4160   14.7454 H   0  0  0  0  0  0  0  0  0  0  0  0
   -8.9134  -21.6711   16.4711 H   0  0  0  0  0  0  0  0  0  0  0  0
  -10.1359  -23.1550   15.5421 H   0  0  0  0  0  0  0  0  0  0  0  0
  -10.0042  -21.5544   14.6470 H   0  0  0  0  0  0  0  0  0  0  0  0
   -9.2583  -24.3810   14.0074 H   0  0  0  0  0  0  0  0  0  0  0  0
  -10.3816  -22.4837   12.0215 H   0  0  0  0  0  0  0  0  0  0  0  0
  -12.4073  -23.6875   12.2431 H   0  0  0  0  0  0  0  0  0  0  0  0
  -11.8769  -23.9842   13.8929 H   0  0  0  0  0  0  0  0  0  0  0  0
  -12.3964  -26.0604   12.3468 H   0  0  0  0  0  0  0  0  0  0  0  0
  -10.8969  -26.0916   13.2998 H   0  0  0  0  0  0  0  0  0  0  0  0
  -11.2390  -25.2245   10.3919 H   0  0  0  0  0  0  0  0  0  0  0  0
  -10.1031  -26.4261   11.0244 H   0  0  0  0  0  0  0  0  0  0  0  0
   -8.8199  -24.8468   11.9221 H   0  0  0  0  0  0  0  0  0  0  0  0
   -7.2133  -23.0023   12.9320 H   0  0  0  0  0  0  0  0  0  0  0  0
   -8.1020  -21.6476   13.2155 H   0  0  0  0  0  0  0  0  0  0  0  0
   -7.2375  -23.8027   16.0671 H   0  0  0  0  0  0  0  0  0  0  0  0
   -8.5786  -23.8180   15.9012 H   0  0  0  0  0  0  0  0  0  0  0  0
  1  2  1  0
  2  3  1  0
  2  4  1  0
  4  5  1  0
  5  6  1  0
  6  7  1  0
  7  8  1  0
  8  9  1  0
  9 10  1  0
 10 11  2  0
 10 12  1  0
 12 13  1  0
 13 14  1  0
 14 15  1  0
 15 16  1  0
 16 17  1  0
 17 18  1  0
 18 19  1  0
 19 20  1  0
 15 21  1  0
 21 22  1  0
 22 12  1  0
 20 16  1  0
  1 23  1  0
  1 24  1  0
  1 25  1  0
  2 26  1  0
  3 27  1  0
  3 28  1  0
  3 29  1  0
  4 30  1  0
  4 31  1  0
  6 32  1  0
  6 33  1  0
  7 34  1  0
  7 35  1  0
  8 36  1  0
  8 37  1  0
  9 38  1  0
 13 39  1  0
 13 40  1  0
 14 41  1  0
 14 42  1  0
 15 43  1  0
 16 44  1  0
 17 45  1  0
 17 46  1  0
 18 47  1  0
 18 48  1  0
 19 49  1  0
 19 50  1  0
 20 51  1  0
 21 52  1  0
 21 53  1  0
 22 54  1  0
 22 55  1  0
M  END
>  <Energy>  (991) 
2343.3846513890535

>  <compound_id>  (991) 
21704

>  <target_id>  (991) 
1

>  <reference_id>  (991) 
30

>  <inspiration_ids>  (991) 
[44, 30]

>  <energy_score>  (991) 
2344.9485160468944

>  <distance_score>  (991) 
9.034705714472178

>  <path>  (991) 
/opt/xchem-fragalysis-2/maxwin/BulkDock/SCRATCH/511015/C21704-P30/C21704-P30.minimised.mol

>  <scratch_subdir>  (991) 
/opt/xchem-fragalysis-2/maxwin/BulkDock/SCRATCH/511015/C21704-P30

>  <fragmenstein_runtime>  (991) 
22.46468234062195

>  <fragmenstein_outcome>  (991) 
too moved

>  <fragmenstein_mode>  (991) 
expansion

>  <fragmenstein_error>  (991) 


$$$$
C21705-P44
     RDKit          3D

 51 52  0  0  0  0  0  0  0  0999 V2000
  -10.7102  -26.8015   15.0342 C   0  0  0  0  0  0  0  0  0  0  0  0
  -10.4756  -26.0085   13.7628 C   0  0  0  0  0  0  0  0  0  0  0  0
  -10.3547  -24.6251   14.1163 O   0  0  0  0  0  0  0  0  0  0  0  0
   -9.9791  -23.8121   13.0999 C   0  0  0  0  0  0  0  0  0  0  0  0
   -9.7705  -24.1893   11.9493 O   0  0  0  0  0  0  0  0  0  0  0  0
   -9.8424  -22.3473   13.4836 C   0  0  0  0  0  0  0  0  0  0  0  0
   -9.9181  -21.8696   15.0203 C   0  0  0  0  0  0  0  0  0  0  0  0
   -9.1783  -21.5726   16.6679 C   0  0  0  0  0  0  0  0  0  0  0  0
   -7.4611  -21.1405   17.8287 C   0  0  0  0  0  0  0  0  0  0  0  0
   -5.4609  -21.5316   17.0406 C   0  0  0  0  0  0  0  0  0  0  0  0
   -5.3264  -20.1898   17.3789 N   0  0  0  0  0  0  0  0  0  0  0  0
   -3.9069  -18.8090   17.0158 C   0  0  0  0  0  0  0  0  0  0  0  0
   -2.9007  -19.0054   16.5142 O   0  0  0  0  0  0  0  0  0  0  0  0
   -4.1102  -17.1720   17.2780 N   0  0  0  0  0  0  0  0  0  0  0  0
   -3.2179  -15.8648   16.8556 C   0  0  0  0  0  0  0  0  0  0  0  0
   -1.7568  -15.3212   17.5661 C   0  0  0  0  0  0  0  0  0  0  0  0
   -1.5058  -13.8121   17.2381 C   0  0  0  0  0  0  0  0  0  0  0  0
   -0.8921  -13.1394   18.4689 C   0  0  0  0  0  0  0  0  0  0  0  0
   -0.4731  -14.3071   19.3246 C   0  0  0  0  0  0  0  0  0  0  0  0
   -1.4905  -15.3129   19.0255 N   0  0  0  0  0  0  0  0  0  0  0  0
   -7.0015  -20.9273   16.2380 C   0  0  0  0  0  0  0  0  0  0  0  0
   -8.0938  -22.3872   15.6364 C   0  0  0  0  0  0  0  0  0  0  0  0
   -9.8619  -26.6912   15.7174 H   0  0  0  0  0  0  0  0  0  0  0  0
  -11.5955  -26.4333   15.5631 H   0  0  0  0  0  0  0  0  0  0  0  0
  -10.8449  -27.8638   14.8126 H   0  0  0  0  0  0  0  0  0  0  0  0
  -11.3255  -26.1337   13.0831 H   0  0  0  0  0  0  0  0  0  0  0  0
   -9.5585  -26.3591   13.2762 H   0  0  0  0  0  0  0  0  0  0  0  0
  -10.7162  -21.8975   13.0011 H   0  0  0  0  0  0  0  0  0  0  0  0
   -8.9714  -21.9730   12.9364 H   0  0  0  0  0  0  0  0  0  0  0  0
  -10.3270  -20.8933   14.8228 H   0  0  0  0  0  0  0  0  0  0  0  0
  -10.3752  -22.7869   15.3219 H   0  0  0  0  0  0  0  0  0  0  0  0
   -9.5432  -20.5532   16.7381 H   0  0  0  0  0  0  0  0  0  0  0  0
   -7.1154  -20.1582   18.3763 H   0  0  0  0  0  0  0  0  0  0  0  0
   -8.0853  -20.1872   17.8048 H   0  0  0  0  0  0  0  0  0  0  0  0
   -4.6910  -22.2656   16.7412 H   0  0  0  0  0  0  0  0  0  0  0  0
   -5.9629  -22.5769   17.3237 H   0  0  0  0  0  0  0  0  0  0  0  0
   -4.9612  -17.0708   17.7975 H   0  0  0  0  0  0  0  0  0  0  0  0
   -3.7609  -14.9864   16.6283 H   0  0  0  0  0  0  0  0  0  0  0  0
   -2.8628  -16.2095   15.8731 H   0  0  0  0  0  0  0  0  0  0  0  0
   -0.9658  -15.9184   17.0924 H   0  0  0  0  0  0  0  0  0  0  0  0
   -0.8398  -13.7239   16.3729 H   0  0  0  0  0  0  0  0  0  0  0  0
   -2.4318  -13.2964   17.0118 H   0  0  0  0  0  0  0  0  0  0  0  0
   -0.0541  -12.4871   18.2070 H   0  0  0  0  0  0  0  0  0  0  0  0
   -1.6497  -12.5340   18.9810 H   0  0  0  0  0  0  0  0  0  0  0  0
   -0.4532  -14.0560   20.3884 H   0  0  0  0  0  0  0  0  0  0  0  0
    0.5173  -14.6730   19.0311 H   0  0  0  0  0  0  0  0  0  0  0  0
   -1.2159  -16.2526   19.3109 H   0  0  0  0  0  0  0  0  0  0  0  0
   -7.1363  -20.6842   14.7212 H   0  0  0  0  0  0  0  0  0  0  0  0
   -7.2889  -21.3069   14.8174 H   0  0  0  0  0  0  0  0  0  0  0  0
   -8.1854  -22.4692   14.5661 H   0  0  0  0  0  0  0  0  0  0  0  0
   -7.6173  -23.2889   15.8918 H   0  0  0  0  0  0  0  0  0  0  0  0
  1  2  1  0
  2  3  1  0
  3  4  1  0
  4  5  2  0
  4  6  1  0
  6  7  1  0
  7  8  1  0
  8  9  1  0
  9 10  1  0
 10 11  1  0
 11 12  1  0
 12 13  2  0
 12 14  1  0
 14 15  1  0
 15 16  1  0
 16 17  1  0
 17 18  1  0
 18 19  1  0
 19 20  1  0
 11 21  1  0
 21 22  1  0
 22  8  1  0
 20 16  1  0
  1 23  1  0
  1 24  1  0
  1 25  1  0
  2 26  1  0
  2 27  1  0
  6 28  1  0
  6 29  1  0
  7 30  1  0
  7 31  1  0
  8 32  1  0
  9 33  1  0
  9 34  1  0
 10 35  1  0
 10 36  1  0
 14 37  1  0
 15 38  1  0
 15 39  1  0
 16 40  1  0
 17 41  1  0
 17 42  1  0
 18 43  1  0
 18 44  1  0
 19 45  1  0
 19 46  1  0
 20 47  1  0
 21 48  1  0
 21 49  1  0
 22 50  1  0
 22 51  1  0
M  END
>  <Energy>  (992) 
1513.0835768496599

>  <compound_id>  (992) 
21705

>  <target_id>  (992) 
1

>  <reference_id>  (992) 
44

>  <inspiration_ids>  (992) 
[44, 30]

>  <energy_score>  (992) 
1527.9081049508713

>  <distance_score>  (992) 
13.07107229212844

>  <path>  (992) 
/opt/xchem-fragalysis-2/maxwin/BulkDock/SCRATCH/511015/C21705-P44/C21705-P44.minimised.mol

>  <scratch_subdir>  (992) 
/opt/xchem-fragalysis-2/maxwin/BulkDock/SCRATCH/511015/C21705-P44

>  <fragmenstein_runtime>  (992) 
25.56717324256897

>  <fragmenstein_outcome>  (992) 
too moved

>  <fragmenstein_mode>  (992) 
expansion

>  <fragmenstein_error>  (992) 


$$$$
C21705-P30
     RDKit          3D

 51 52  0  0  0  0  0  0  0  0999 V2000
  -17.3414  -27.2701   13.9468 C   0  0  0  0  0  0  0  0  0  0  0  0
  -16.1183  -27.6255   13.1219 C   0  0  0  0  0  0  0  0  0  0  0  0
  -15.5733  -26.4133   12.5875 O   0  0  0  0  0  0  0  0  0  0  0  0
  -14.3612  -26.5595   11.9813 C   0  0  0  0  0  0  0  0  0  0  0  0
  -13.7496  -27.6130   11.8782 O   0  0  0  0  0  0  0  0  0  0  0  0
  -13.9041  -25.2251   11.4397 C   0  0  0  0  0  0  0  0  0  0  0  0
  -12.3999  -25.1665   11.1652 C   0  0  0  0  0  0  0  0  0  0  0  0
  -11.5081  -25.3138   12.4047 C   0  0  0  0  0  0  0  0  0  0  0  0
  -10.0223  -25.0824   12.1120 C   0  0  0  0  0  0  0  0  0  0  0  0
   -9.5983  -23.7101   12.7160 C   0  0  0  0  0  0  0  0  0  0  0  0
   -9.4470  -23.2286   14.1253 N   0  0  0  0  0  0  0  0  0  0  0  0
   -9.8042  -21.8483   14.7594 C   0  0  0  0  0  0  0  0  0  0  0  0
  -10.3546  -20.9114   14.2885 O   0  0  0  0  0  0  0  0  0  0  0  0
   -9.1545  -22.0231   16.0937 N   0  0  0  0  0  0  0  0  0  0  0  0
   -8.8138  -20.7533   17.5539 C   0  0  0  0  0  0  0  0  0  0  0  0
   -7.5256  -19.6007   18.5988 C   0  0  0  0  0  0  0  0  0  0  0  0
   -5.9255  -19.4608   18.9173 C   0  0  0  0  0  0  0  0  0  0  0  0
   -5.6718  -18.1474   19.5595 C   0  0  0  0  0  0  0  0  0  0  0  0
   -6.5481  -18.1322   20.7234 C   0  0  0  0  0  0  0  0  0  0  0  0
   -7.3726  -19.2326   20.3155 N   0  0  0  0  0  0  0  0  0  0  0  0
  -10.5434  -24.2070   14.3490 C   0  0  0  0  0  0  0  0  0  0  0  0
  -11.8446  -24.3478   13.5345 C   0  0  0  0  0  0  0  0  0  0  0  0
  -17.0695  -26.5916   14.7630 H   0  0  0  0  0  0  0  0  0  0  0  0
  -18.0851  -26.7494   13.3329 H   0  0  0  0  0  0  0  0  0  0  0  0
  -17.7992  -28.1674   14.3723 H   0  0  0  0  0  0  0  0  0  0  0  0
  -16.4041  -28.2862   12.2956 H   0  0  0  0  0  0  0  0  0  0  0  0
  -15.3793  -28.1278   13.7584 H   0  0  0  0  0  0  0  0  0  0  0  0
  -14.4476  -25.0506   10.5042 H   0  0  0  0  0  0  0  0  0  0  0  0
  -14.1873  -24.4354   12.1435 H   0  0  0  0  0  0  0  0  0  0  0  0
  -12.1787  -24.2180   10.6676 H   0  0  0  0  0  0  0  0  0  0  0  0
  -12.1324  -25.9521   10.4468 H   0  0  0  0  0  0  0  0  0  0  0  0
  -11.6103  -26.3421   12.7757 H   0  0  0  0  0  0  0  0  0  0  0  0
   -9.8232  -25.0994   11.0357 H   0  0  0  0  0  0  0  0  0  0  0  0
   -9.4109  -25.8891   12.5379 H   0  0  0  0  0  0  0  0  0  0  0  0
   -8.5429  -23.6604   12.4517 H   0  0  0  0  0  0  0  0  0  0  0  0
  -10.0902  -22.8984   12.1606 H   0  0  0  0  0  0  0  0  0  0  0  0
   -8.7109  -22.9225   16.1300 H   0  0  0  0  0  0  0  0  0  0  0  0
   -7.7710  -20.9898   17.3766 H   0  0  0  0  0  0  0  0  0  0  0  0
   -9.4330  -19.9378   17.2936 H   0  0  0  0  0  0  0  0  0  0  0  0
   -8.3766  -20.0321   19.2049 H   0  0  0  0  0  0  0  0  0  0  0  0
   -5.1830  -19.4582   18.1208 H   0  0  0  0  0  0  0  0  0  0  0  0
   -5.5201  -20.1291   19.6875 H   0  0  0  0  0  0  0  0  0  0  0  0
   -5.8659  -17.4453   18.7900 H   0  0  0  0  0  0  0  0  0  0  0  0
   -4.6626  -18.0341   19.8716 H   0  0  0  0  0  0  0  0  0  0  0  0
   -6.9872  -17.1620   20.9130 H   0  0  0  0  0  0  0  0  0  0  0  0
   -6.0895  -18.4129   21.6612 H   0  0  0  0  0  0  0  0  0  0  0  0
   -8.2173  -19.3861   20.8670 H   0  0  0  0  0  0  0  0  0  0  0  0
  -10.7121  -24.1886   15.4030 H   0  0  0  0  0  0  0  0  0  0  0  0
  -10.0508  -25.2000   14.4094 H   0  0  0  0  0  0  0  0  0  0  0  0
  -12.1931  -23.3842   13.1569 H   0  0  0  0  0  0  0  0  0  0  0  0
  -12.6441  -24.7870   14.1406 H   0  0  0  0  0  0  0  0  0  0  0  0
  1  2  1  0
  2  3  1  0
  3  4  1  0
  4  5  2  0
  4  6  1  0
  6  7  1  0
  7  8  1  0
  8  9  1  0
  9 10  1  0
 10 11  1  0
 11 12  1  0
 12 13  2  0
 12 14  1  0
 14 15  1  0
 15 16  1  0
 16 17  1  0
 17 18  1  0
 18 19  1  0
 19 20  1  0
 11 21  1  0
 21 22  1  0
 22  8  1  0
 20 16  1  0
  1 23  1  0
  1 24  1  0
  1 25  1  0
  2 26  1  0
  2 27  1  0
  6 28  1  0
  6 29  1  0
  7 30  1  0
  7 31  1  0
  8 32  1  0
  9 33  1  0
  9 34  1  0
 10 35  1  0
 10 36  1  0
 14 37  1  0
 15 38  1  0
 15 39  1  0
 16 40  1  0
 17 41  1  0
 17 42  1  0
 18 43  1  0
 18 44  1  0
 19 45  1  0
 19 46  1  0
 20 47  1  0
 21 48  1  0
 21 49  1  0
 22 50  1  0
 22 51  1  0
M  END
>  <Energy>  (993) 
390.83802514652257

>  <compound_id>  (993) 
21705

>  <target_id>  (993) 
1

>  <reference_id>  (993) 
30

>  <inspiration_ids>  (993) 
[44, 30]

>  <energy_score>  (993) 
405.66255324775227

>  <distance_score>  (993) 
15.456374501913418

>  <path>  (993) 
/opt/xchem-fragalysis-2/maxwin/BulkDock/SCRATCH/511015/C21705-P30/C21705-P30.minimised.mol

>  <scratch_subdir>  (993) 
/opt/xchem-fragalysis-2/maxwin/BulkDock/SCRATCH/511015/C21705-P30

>  <fragmenstein_runtime>  (993) 
26.957906007766724

>  <fragmenstein_outcome>  (993) 
too moved

>  <fragmenstein_mode>  (993) 
expansion

>  <fragmenstein_error>  (993) 


$$$$
C21706-P44
     RDKit          3D

 54 55  0  0  0  0  0  0  0  0999 V2000
  -16.0257  -13.8332   16.0701 C   0  0  0  0  0  0  0  0  0  0  0  0
  -17.1980  -12.8745   15.9822 C   0  0  0  0  0  0  0  0  0  0  0  0
  -16.7719  -11.5258   16.2219 O   0  0  0  0  0  0  0  0  0  0  0  0
  -16.6903  -11.1526   17.5287 C   0  0  0  0  0  0  0  0  0  0  0  0
  -16.9361  -11.8735   18.4861 O   0  0  0  0  0  0  0  0  0  0  0  0
  -16.3053   -9.6978   17.6371 C   0  0  0  0  0  0  0  0  0  0  0  0
  -15.1132   -9.5022   18.5721 C   0  0  0  0  0  0  0  0  0  0  0  0
  -14.7544   -8.0031   18.7433 C   0  0  0  0  0  0  0  0  0  0  0  0
  -15.7842   -7.1472   19.4812 C   0  0  0  0  0  0  0  0  0  0  0  0
  -15.2440   -5.6972   19.6413 C   0  0  0  0  0  0  0  0  0  0  0  0
  -14.0979   -5.3066   20.5692 N   0  0  0  0  0  0  0  0  0  0  0  0
  -13.8041   -5.7188   21.9591 C   0  0  0  0  0  0  0  0  0  0  0  0
  -14.3367   -6.5132   22.6446 O   0  0  0  0  0  0  0  0  0  0  0  0
  -12.7123   -4.7731   22.2621 N   0  0  0  0  0  0  0  0  0  0  0  0
  -12.0328   -4.4712   23.5211 C   0  0  0  0  0  0  0  0  0  0  0  0
  -10.7797   -3.5920   23.3497 C   0  0  0  0  0  0  0  0  0  0  0  0
   -9.9212   -3.4472   24.6182 C   0  0  0  0  0  0  0  0  0  0  0  0
   -8.6441   -2.6986   24.3011 C   0  0  0  0  0  0  0  0  0  0  0  0
   -8.1532   -2.1922   25.6370 C   0  0  0  0  0  0  0  0  0  0  0  0
   -9.3608   -2.2499   26.5506 C   0  0  0  0  0  0  0  0  0  0  0  0
  -10.4965   -2.6199   25.6894 N   0  0  0  0  0  0  0  0  0  0  0  0
  -13.3004   -6.1606   19.5900 C   0  0  0  0  0  0  0  0  0  0  0  0
  -13.5076   -7.6938   19.5591 C   0  0  0  0  0  0  0  0  0  0  0  0
  -16.3360  -14.8505   15.8147 H   0  0  0  0  0  0  0  0  0  0  0  0
  -15.6031  -13.8438   17.0792 H   0  0  0  0  0  0  0  0  0  0  0  0
  -15.2256  -13.5269   15.3885 H   0  0  0  0  0  0  0  0  0  0  0  0
  -17.6169  -12.9005   14.9709 H   0  0  0  0  0  0  0  0  0  0  0  0
  -18.0023  -13.1619   16.6694 H   0  0  0  0  0  0  0  0  0  0  0  0
  -16.0576   -9.3074   16.6430 H   0  0  0  0  0  0  0  0  0  0  0  0
  -17.1910   -9.1580   17.9870 H   0  0  0  0  0  0  0  0  0  0  0  0
  -14.2508  -10.0294   18.1512 H   0  0  0  0  0  0  0  0  0  0  0  0
  -15.3335   -9.9434   19.5506 H   0  0  0  0  0  0  0  0  0  0  0  0
  -14.6141   -7.5891   17.7348 H   0  0  0  0  0  0  0  0  0  0  0  0
  -16.7225   -7.1101   18.9172 H   0  0  0  0  0  0  0  0  0  0  0  0
  -16.0122   -7.5705   20.4673 H   0  0  0  0  0  0  0  0  0  0  0  0
  -15.1689   -5.1728   18.6734 H   0  0  0  0  0  0  0  0  0  0  0  0
  -16.0808   -5.1714   20.1270 H   0  0  0  0  0  0  0  0  0  0  0  0
  -12.5570   -4.1773   21.4598 H   0  0  0  0  0  0  0  0  0  0  0  0
  -11.7781   -5.4313   23.9823 H   0  0  0  0  0  0  0  0  0  0  0  0
  -12.7641   -3.9791   24.1707 H   0  0  0  0  0  0  0  0  0  0  0  0
  -11.0865   -2.6057   22.9773 H   0  0  0  0  0  0  0  0  0  0  0  0
  -10.1596   -4.0327   22.5574 H   0  0  0  0  0  0  0  0  0  0  0  0
   -9.6874   -4.4426   25.0175 H   0  0  0  0  0  0  0  0  0  0  0  0
   -7.9093   -3.3430   23.8087 H   0  0  0  0  0  0  0  0  0  0  0  0
   -8.8710   -1.8474   23.6477 H   0  0  0  0  0  0  0  0  0  0  0  0
   -7.3613   -2.8478   26.0103 H   0  0  0  0  0  0  0  0  0  0  0  0
   -7.7754   -1.1745   25.5308 H   0  0  0  0  0  0  0  0  0  0  0  0
   -9.2225   -3.0147   27.3230 H   0  0  0  0  0  0  0  0  0  0  0  0
   -9.5430   -1.2976   27.0579 H   0  0  0  0  0  0  0  0  0  0  0  0
  -10.8794   -1.7663   25.2788 H   0  0  0  0  0  0  0  0  0  0  0  0
  -12.2664   -6.0398   19.9470 H   0  0  0  0  0  0  0  0  0  0  0  0
  -13.2418   -5.7091   18.5846 H   0  0  0  0  0  0  0  0  0  0  0  0
  -13.6102   -8.0512   20.5878 H   0  0  0  0  0  0  0  0  0  0  0  0
  -12.6156   -8.1407   19.1367 H   0  0  0  0  0  0  0  0  0  0  0  0
  1  2  1  0
  2  3  1  0
  3  4  1  0
  4  5  2  0
  4  6  1  0
  6  7  1  0
  7  8  1  0
  8  9  1  0
  9 10  1  0
 10 11  1  0
 11 12  1  0
 12 13  2  0
 12 14  1  0
 14 15  1  0
 15 16  1  0
 16 17  1  0
 17 18  1  0
 18 19  1  0
 19 20  1  0
 20 21  1  0
 11 22  1  0
 22 23  1  0
 23  8  1  0
 21 17  1  0
  1 24  1  0
  1 25  1  0
  1 26  1  0
  2 27  1  0
  2 28  1  0
  6 29  1  0
  6 30  1  0
  7 31  1  0
  7 32  1  0
  8 33  1  0
  9 34  1  0
  9 35  1  0
 10 36  1  0
 10 37  1  0
 14 38  1  0
 15 39  1  0
 15 40  1  0
 16 41  1  0
 16 42  1  0
 17 43  1  0
 18 44  1  0
 18 45  1  0
 19 46  1  0
 19 47  1  0
 20 48  1  0
 20 49  1  0
 21 50  1  0
 22 51  1  0
 22 52  1  0
 23 53  1  0
 23 54  1  0
M  END
>  <Energy>  (994) 
7.0733676136527359

>  <compound_id>  (994) 
21706

>  <target_id>  (994) 
1

>  <reference_id>  (994) 
44

>  <inspiration_ids>  (994) 
[44, 30]

>  <energy_score>  (994) 
31.74426525519658

>  <distance_score>  (994) 
15.766426491689563

>  <path>  (994) 
/opt/xchem-fragalysis-2/maxwin/BulkDock/SCRATCH/511015/C21706-P44/C21706-P44.minimised.mol

>  <scratch_subdir>  (994) 
/opt/xchem-fragalysis-2/maxwin/BulkDock/SCRATCH/511015/C21706-P44

>  <fragmenstein_runtime>  (994) 
29.62784695625305

>  <fragmenstein_outcome>  (994) 
too moved

>  <fragmenstein_mode>  (994) 
expansion

>  <fragmenstein_error>  (994) 


$$$$
C21706-P30
     RDKit          3D

 54 55  0  0  0  0  0  0  0  0999 V2000
   -8.9769  -27.1989   11.5730 C   0  0  0  0  0  0  0  0  0  0  0  0
  -10.0914  -26.7128   12.4804 C   0  0  0  0  0  0  0  0  0  0  0  0
   -9.7830  -25.4047   12.9835 O   0  0  0  0  0  0  0  0  0  0  0  0
  -10.1406  -24.3642   12.1869 C   0  0  0  0  0  0  0  0  0  0  0  0
  -10.7063  -24.4562   11.1053 O   0  0  0  0  0  0  0  0  0  0  0  0
   -9.6823  -23.0488   12.7706 C   0  0  0  0  0  0  0  0  0  0  0  0
  -10.3000  -22.7997   14.1293 C   0  0  0  0  0  0  0  0  0  0  0  0
   -9.8816  -21.4056   14.7907 C   0  0  0  0  0  0  0  0  0  0  0  0
   -9.6229  -21.1523   16.3510 C   0  0  0  0  0  0  0  0  0  0  0  0
   -9.3194  -19.5830   17.5457 C   0  0  0  0  0  0  0  0  0  0  0  0
   -8.5507  -17.9168   16.8542 N   0  0  0  0  0  0  0  0  0  0  0  0
   -8.3028  -16.4653   17.5707 C   0  0  0  0  0  0  0  0  0  0  0  0
   -8.6399  -16.1470   18.6236 O   0  0  0  0  0  0  0  0  0  0  0  0
   -7.3600  -15.5286   16.6288 N   0  0  0  0  0  0  0  0  0  0  0  0
   -6.7661  -13.9001   16.8571 C   0  0  0  0  0  0  0  0  0  0  0  0
   -5.7603  -12.5433   18.0281 C   0  0  0  0  0  0  0  0  0  0  0  0
   -3.9616  -11.8403   18.3910 C   0  0  0  0  0  0  0  0  0  0  0  0
   -3.4850  -11.5606   19.8274 C   0  0  0  0  0  0  0  0  0  0  0  0
   -2.3244  -10.5751   19.8337 C   0  0  0  0  0  0  0  0  0  0  0  0
   -2.4906   -9.7870   18.5779 C   0  0  0  0  0  0  0  0  0  0  0  0
   -3.2943  -10.6323   17.6709 N   0  0  0  0  0  0  0  0  0  0  0  0
  -10.0701  -18.5474   15.7095 C   0  0  0  0  0  0  0  0  0  0  0  0
  -10.4283  -19.9975   14.4054 C   0  0  0  0  0  0  0  0  0  0  0  0
   -9.1743  -28.2177   11.2280 H   0  0  0  0  0  0  0  0  0  0  0  0
   -8.8693  -26.5485   10.6992 H   0  0  0  0  0  0  0  0  0  0  0  0
   -8.0177  -27.1840   12.1007 H   0  0  0  0  0  0  0  0  0  0  0  0
  -10.1769  -27.3764   13.3471 H   0  0  0  0  0  0  0  0  0  0  0  0
  -11.0605  -26.7241   11.9687 H   0  0  0  0  0  0  0  0  0  0  0  0
   -8.5937  -23.0365   12.8142 H   0  0  0  0  0  0  0  0  0  0  0  0
   -9.9809  -22.2583   12.0866 H   0  0  0  0  0  0  0  0  0  0  0  0
   -9.9646  -23.5994   14.8034 H   0  0  0  0  0  0  0  0  0  0  0  0
  -11.3524  -22.9785   13.9336 H   0  0  0  0  0  0  0  0  0  0  0  0
   -8.8716  -21.6374   14.4116 H   0  0  0  0  0  0  0  0  0  0  0  0
   -9.6668  -21.8744   17.0959 H   0  0  0  0  0  0  0  0  0  0  0  0
   -8.9489  -21.9657   16.1453 H   0  0  0  0  0  0  0  0  0  0  0  0
   -8.3967  -20.0348   17.9958 H   0  0  0  0  0  0  0  0  0  0  0  0
   -9.9883  -19.5033   18.3702 H   0  0  0  0  0  0  0  0  0  0  0  0
   -7.2677  -15.9679   15.7357 H   0  0  0  0  0  0  0  0  0  0  0  0
   -7.6294  -13.5321   17.5436 H   0  0  0  0  0  0  0  0  0  0  0  0
   -7.5982  -13.5067   16.3256 H   0  0  0  0  0  0  0  0  0  0  0  0
   -6.2056  -12.6548   19.0156 H   0  0  0  0  0  0  0  0  0  0  0  0
   -6.2273  -11.5832   17.7540 H   0  0  0  0  0  0  0  0  0  0  0  0
   -3.2419  -12.6124   18.0702 H   0  0  0  0  0  0  0  0  0  0  0  0
   -4.2741  -11.1936   20.4579 H   0  0  0  0  0  0  0  0  0  0  0  0
   -3.0635  -12.4631   20.2451 H   0  0  0  0  0  0  0  0  0  0  0  0
   -1.3771  -11.1280   19.8040 H   0  0  0  0  0  0  0  0  0  0  0  0
   -2.3152   -9.9530   20.7336 H   0  0  0  0  0  0  0  0  0  0  0  0
   -1.5230   -9.5469   18.1240 H   0  0  0  0  0  0  0  0  0  0  0  0
   -2.9896   -8.8309   18.7646 H   0  0  0  0  0  0  0  0  0  0  0  0
   -2.6409  -11.0008   16.9781 H   0  0  0  0  0  0  0  0  0  0  0  0
  -10.2570  -17.9410   14.8191 H   0  0  0  0  0  0  0  0  0  0  0  0
  -11.0071  -18.3118   16.2007 H   0  0  0  0  0  0  0  0  0  0  0  0
  -11.4213  -20.0603   13.9634 H   0  0  0  0  0  0  0  0  0  0  0  0
  -10.1892  -19.6526   13.3874 H   0  0  0  0  0  0  0  0  0  0  0  0
  1  2  1  0
  2  3  1  0
  3  4  1  0
  4  5  2  0
  4  6  1  0
  6  7  1  0
  7  8  1  0
  8  9  1  0
  9 10  1  0
 10 11  1  0
 11 12  1  0
 12 13  2  0
 12 14  1  0
 14 15  1  0
 15 16  1  0
 16 17  1  0
 17 18  1  0
 18 19  1  0
 19 20  1  0
 20 21  1  0
 11 22  1  0
 22 23  1  0
 23  8  1  0
 21 17  1  0
  1 24  1  0
  1 25  1  0
  1 26  1  0
  2 27  1  0
  2 28  1  0
  6 29  1  0
  6 30  1  0
  7 31  1  0
  7 32  1  0
  8 33  1  0
  9 34  1  0
  9 35  1  0
 10 36  1  0
 10 37  1  0
 14 38  1  0
 15 39  1  0
 15 40  1  0
 16 41  1  0
 16 42  1  0
 17 43  1  0
 18 44  1  0
 18 45  1  0
 19 46  1  0
 19 47  1  0
 20 48  1  0
 20 49  1  0
 21 50  1  0
 22 51  1  0
 22 52  1  0
 23 53  1  0
 23 54  1  0
M  END
>  <Energy>  (995) 
682.41718534436347

>  <compound_id>  (995) 
21706

>  <target_id>  (995) 
1

>  <reference_id>  (995) 
30

>  <inspiration_ids>  (995) 
[44, 30]

>  <energy_score>  (995) 
707.0880829859091

>  <distance_score>  (995) 
11.113025964020508

>  <path>  (995) 
/opt/xchem-fragalysis-2/maxwin/BulkDock/SCRATCH/511015/C21706-P30/C21706-P30.minimised.mol

>  <scratch_subdir>  (995) 
/opt/xchem-fragalysis-2/maxwin/BulkDock/SCRATCH/511015/C21706-P30

>  <fragmenstein_runtime>  (995) 
32.267104148864746

>  <fragmenstein_outcome>  (995) 
too moved

>  <fragmenstein_mode>  (995) 
expansion

>  <fragmenstein_error>  (995) 


$$$$
C21708-P44
     RDKit          3D

 50 52  0  0  0  0  0  0  0  0999 V2000
   -7.7074  -16.2679   21.0775 O   0  0  0  0  0  0  0  0  0  0  0  0
   -7.7069  -17.0289   21.9540 C   0  0  0  0  0  0  0  0  0  0  0  0
   -7.5800  -16.5082   23.7415 N   0  0  0  0  0  0  0  0  0  0  0  0
   -7.2510  -14.5943   24.6159 C   0  0  0  0  0  0  0  0  0  0  0  0
   -6.5666  -12.4355   25.1096 C   0  0  0  0  0  0  0  0  0  0  0  0
   -6.9637  -10.3695   25.7541 C   0  0  0  0  0  0  0  0  0  0  0  0
   -6.5175   -8.9658   27.3120 C   0  0  0  0  0  0  0  0  0  0  0  0
   -7.4046   -7.7824   27.6688 C   0  0  0  0  0  0  0  0  0  0  0  0
   -7.8962   -7.3385   26.5521 C   0  0  0  0  0  0  0  0  0  0  0  0
   -7.3981   -8.3097   25.4759 C   0  0  0  0  0  0  0  0  0  0  0  0
   -7.6515  -18.6093   21.5863 N   0  0  0  0  0  0  0  0  0  0  0  0
   -9.0434  -19.1973   21.4311 C   0  0  0  0  0  0  0  0  0  0  0  0
   -9.5643  -20.2190   19.9904 C   0  0  0  0  0  0  0  0  0  0  0  0
   -8.8334  -20.4111   18.2211 C   0  0  0  0  0  0  0  0  0  0  0  0
   -9.5173  -21.3175   16.5119 C   0  0  0  0  0  0  0  0  0  0  0  0
   -8.9110  -22.5962   15.3688 C   0  0  0  0  0  0  0  0  0  0  0  0
   -9.1169  -22.4708   13.8758 C   0  0  0  0  0  0  0  0  0  0  0  0
  -10.2920  -21.6514   13.9229 C   0  0  0  0  0  0  0  0  0  0  0  0
  -10.0661  -20.8648   15.1518 N   0  0  0  0  0  0  0  0  0  0  0  0
   -8.2065  -19.0017   18.7185 C   0  0  0  0  0  0  0  0  0  0  0  0
   -7.4813  -19.3417   20.2590 C   0  0  0  0  0  0  0  0  0  0  0  0
   -7.6827  -17.2831   24.3029 H   0  0  0  0  0  0  0  0  0  0  0  0
   -6.3761  -15.0917   24.1818 H   0  0  0  0  0  0  0  0  0  0  0  0
   -6.7959  -14.2361   23.6960 H   0  0  0  0  0  0  0  0  0  0  0  0
   -5.5781  -12.3908   24.6069 H   0  0  0  0  0  0  0  0  0  0  0  0
   -6.7028  -11.8985   24.0812 H   0  0  0  0  0  0  0  0  0  0  0  0
   -8.0154  -10.7351   25.8221 H   0  0  0  0  0  0  0  0  0  0  0  0
   -6.6733   -9.3091   28.3640 H   0  0  0  0  0  0  0  0  0  0  0  0
   -5.5791   -8.3844   27.2402 H   0  0  0  0  0  0  0  0  0  0  0  0
   -7.5098   -7.3272   28.6436 H   0  0  0  0  0  0  0  0  0  0  0  0
   -8.5022   -6.4585   26.3905 H   0  0  0  0  0  0  0  0  0  0  0  0
   -7.8442   -8.0632   24.5606 H   0  0  0  0  0  0  0  0  0  0  0  0
   -6.5772   -7.5904   25.2601 H   0  0  0  0  0  0  0  0  0  0  0  0
   -9.2117  -19.8393   22.3060 H   0  0  0  0  0  0  0  0  0  0  0  0
   -9.7801  -18.3898   21.4809 H   0  0  0  0  0  0  0  0  0  0  0  0
   -9.7383  -21.2054   20.4349 H   0  0  0  0  0  0  0  0  0  0  0  0
  -10.4963  -19.6358   19.8617 H   0  0  0  0  0  0  0  0  0  0  0  0
   -7.8944  -20.9505   18.3254 H   0  0  0  0  0  0  0  0  0  0  0  0
   -9.8778  -22.1828   16.9189 H   0  0  0  0  0  0  0  0  0  0  0  0
   -7.8645  -22.6883   15.4648 H   0  0  0  0  0  0  0  0  0  0  0  0
   -9.4236  -23.5343   15.5952 H   0  0  0  0  0  0  0  0  0  0  0  0
   -9.3485  -23.4222   13.3781 H   0  0  0  0  0  0  0  0  0  0  0  0
   -8.2561  -22.0363   13.3572 H   0  0  0  0  0  0  0  0  0  0  0  0
  -10.4006  -21.0237   13.0450 H   0  0  0  0  0  0  0  0  0  0  0  0
  -11.0967  -22.3819   13.8483 H   0  0  0  0  0  0  0  0  0  0  0  0
  -10.3111  -19.8908   15.0883 H   0  0  0  0  0  0  0  0  0  0  0  0
   -8.9695  -18.2197   18.8225 H   0  0  0  0  0  0  0  0  0  0  0  0
   -7.4219  -18.5919   18.1025 H   0  0  0  0  0  0  0  0  0  0  0  0
   -7.2896  -20.4110   20.4409 H   0  0  0  0  0  0  0  0  0  0  0  0
   -6.4582  -19.0001   20.0245 H   0  0  0  0  0  0  0  0  0  0  0  0
  1  2  2  0
  2  3  1  0
  3  4  1  0
  4  5  1  0
  5  6  1  0
  6  7  1  0
  7  8  1  0
  8  9  2  0
  9 10  1  0
  2 11  1  0
 11 12  1  0
 12 13  1  0
 13 14  1  0
 14 15  1  0
 15 16  1  0
 16 17  1  0
 17 18  1  0
 18 19  1  0
 14 20  1  0
 20 21  1  0
 10  6  1  0
 21 11  1  0
 19 15  1  0
  3 22  1  0
  4 23  1  0
  4 24  1  0
  5 25  1  0
  5 26  1  0
  6 27  1  0
  7 28  1  0
  7 29  1  0
  8 30  1  0
  9 31  1  0
 10 32  1  0
 10 33  1  0
 12 34  1  0
 12 35  1  0
 13 36  1  0
 13 37  1  0
 14 38  1  0
 15 39  1  0
 16 40  1  0
 16 41  1  0
 17 42  1  0
 17 43  1  0
 18 44  1  0
 18 45  1  0
 19 46  1  0
 20 47  1  0
 20 48  1  0
 21 49  1  0
 21 50  1  0
M  END
>  <Energy>  (996) 
1441.8523040692007

>  <compound_id>  (996) 
21708

>  <target_id>  (996) 
1

>  <reference_id>  (996) 
44

>  <inspiration_ids>  (996) 
[44, 30]

>  <energy_score>  (996) 
1460.3445183470776

>  <distance_score>  (996) 
10.932871462630487

>  <path>  (996) 
/opt/xchem-fragalysis-2/maxwin/BulkDock/SCRATCH/511015/C21708-P44/C21708-P44.minimised.mol

>  <scratch_subdir>  (996) 
/opt/xchem-fragalysis-2/maxwin/BulkDock/SCRATCH/511015/C21708-P44

>  <fragmenstein_runtime>  (996) 
12.885051965713501

>  <fragmenstein_outcome>  (996) 
too moved

>  <fragmenstein_mode>  (996) 
expansion

>  <fragmenstein_error>  (996) 


$$$$
C21708-P30
     RDKit          3D

 50 52  0  0  0  0  0  0  0  0999 V2000
   -8.9287   -5.6920   13.6140 O   0  0  0  0  0  0  0  0  0  0  0  0
   -8.6276   -6.5896   14.3105 C   0  0  0  0  0  0  0  0  0  0  0  0
   -7.7758   -6.6139   15.5280 N   0  0  0  0  0  0  0  0  0  0  0  0
   -6.9704   -5.5365   16.1743 C   0  0  0  0  0  0  0  0  0  0  0  0
   -7.4388   -4.9895   17.5597 C   0  0  0  0  0  0  0  0  0  0  0  0
   -6.8288   -3.6469   18.1017 C   0  0  0  0  0  0  0  0  0  0  0  0
   -5.3032   -3.4383   17.9992 C   0  0  0  0  0  0  0  0  0  0  0  0
   -4.8196   -3.4004   19.4145 C   0  0  0  0  0  0  0  0  0  0  0  0
   -5.8269   -3.4369   20.2875 C   0  0  0  0  0  0  0  0  0  0  0  0
   -7.1556   -3.4463   19.6073 C   0  0  0  0  0  0  0  0  0  0  0  0
   -9.0678   -8.0570   14.2371 N   0  0  0  0  0  0  0  0  0  0  0  0
   -8.0803   -8.8651   13.3601 C   0  0  0  0  0  0  0  0  0  0  0  0
   -8.2494  -10.3307   12.7719 C   0  0  0  0  0  0  0  0  0  0  0  0
   -9.3417  -11.1725   13.4211 C   0  0  0  0  0  0  0  0  0  0  0  0
   -9.6812  -12.4883   12.6366 C   0  0  0  0  0  0  0  0  0  0  0  0
  -10.7118  -13.3993   13.3143 C   0  0  0  0  0  0  0  0  0  0  0  0
  -10.2878  -14.8067   12.9332 C   0  0  0  0  0  0  0  0  0  0  0  0
   -8.7843  -14.6972   12.8972 C   0  0  0  0  0  0  0  0  0  0  0  0
   -8.5170  -13.3555   12.3691 N   0  0  0  0  0  0  0  0  0  0  0  0
  -10.5053  -10.1965   13.5839 C   0  0  0  0  0  0  0  0  0  0  0  0
  -10.0746   -8.7267   13.3457 C   0  0  0  0  0  0  0  0  0  0  0  0
   -7.7942   -7.5424   15.9278 H   0  0  0  0  0  0  0  0  0  0  0  0
   -6.9468   -4.7058   15.4607 H   0  0  0  0  0  0  0  0  0  0  0  0
   -5.9552   -5.9357   16.2626 H   0  0  0  0  0  0  0  0  0  0  0  0
   -8.5278   -4.8523   17.5109 H   0  0  0  0  0  0  0  0  0  0  0  0
   -7.2903   -5.7822   18.2929 H   0  0  0  0  0  0  0  0  0  0  0  0
   -7.3162   -2.8477   17.5261 H   0  0  0  0  0  0  0  0  0  0  0  0
   -5.0782   -2.4823   17.5130 H   0  0  0  0  0  0  0  0  0  0  0  0
   -4.8079   -4.2278   17.4298 H   0  0  0  0  0  0  0  0  0  0  0  0
   -3.7731   -3.3674   19.6868 H   0  0  0  0  0  0  0  0  0  0  0  0
   -5.7084   -3.4473   21.3608 H   0  0  0  0  0  0  0  0  0  0  0  0
   -7.6718   -2.4947   19.7680 H   0  0  0  0  0  0  0  0  0  0  0  0
   -7.7865   -4.2482   20.0035 H   0  0  0  0  0  0  0  0  0  0  0  0
   -7.1934   -8.9235   14.0090 H   0  0  0  0  0  0  0  0  0  0  0  0
   -7.7471   -8.2059   12.5405 H   0  0  0  0  0  0  0  0  0  0  0  0
   -7.2755  -10.8309   12.8034 H   0  0  0  0  0  0  0  0  0  0  0  0
   -8.4754  -10.2246   11.7005 H   0  0  0  0  0  0  0  0  0  0  0  0
   -9.0053  -11.4617   14.4170 H   0  0  0  0  0  0  0  0  0  0  0  0
  -10.0772  -12.1987   11.6543 H   0  0  0  0  0  0  0  0  0  0  0  0
  -10.6797  -13.2801   14.4008 H   0  0  0  0  0  0  0  0  0  0  0  0
  -11.7328  -13.1836   12.9837 H   0  0  0  0  0  0  0  0  0  0  0  0
  -10.6797  -15.0655   11.9426 H   0  0  0  0  0  0  0  0  0  0  0  0
  -10.6288  -15.5503   13.6579 H   0  0  0  0  0  0  0  0  0  0  0  0
   -8.3236  -15.4676   12.2747 H   0  0  0  0  0  0  0  0  0  0  0  0
   -8.3795  -14.7899   13.9097 H   0  0  0  0  0  0  0  0  0  0  0  0
   -7.6597  -12.9874   12.7724 H   0  0  0  0  0  0  0  0  0  0  0  0
  -10.9590  -10.3012   14.5734 H   0  0  0  0  0  0  0  0  0  0  0  0
  -11.2997  -10.4307   12.8642 H   0  0  0  0  0  0  0  0  0  0  0  0
  -10.9816   -8.1499   13.5892 H   0  0  0  0  0  0  0  0  0  0  0  0
   -9.9628   -8.4594   12.2783 H   0  0  0  0  0  0  0  0  0  0  0  0
  1  2  2  0
  2  3  1  0
  3  4  1  0
  4  5  1  0
  5  6  1  0
  6  7  1  0
  7  8  1  0
  8  9  2  0
  9 10  1  0
  2 11  1  0
 11 12  1  0
 12 13  1  0
 13 14  1  0
 14 15  1  0
 15 16  1  0
 16 17  1  0
 17 18  1  0
 18 19  1  0
 14 20  1  0
 20 21  1  0
 10  6  1  0
 21 11  1  0
 19 15  1  0
  3 22  1  0
  4 23  1  0
  4 24  1  0
  5 25  1  0
  5 26  1  0
  6 27  1  0
  7 28  1  0
  7 29  1  0
  8 30  1  0
  9 31  1  0
 10 32  1  0
 10 33  1  0
 12 34  1  0
 12 35  1  0
 13 36  1  0
 13 37  1  0
 14 38  1  0
 15 39  1  0
 16 40  1  0
 16 41  1  0
 17 42  1  0
 17 43  1  0
 18 44  1  0
 18 45  1  0
 19 46  1  0
 20 47  1  0
 20 48  1  0
 21 49  1  0
 21 50  1  0
M  END
>  <Energy>  (997) 
40.18074439333872

>  <compound_id>  (997) 
21708

>  <target_id>  (997) 
1

>  <reference_id>  (997) 
30

>  <inspiration_ids>  (997) 
[44, 30]

>  <energy_score>  (997) 
58.67295867122044

>  <distance_score>  (997) 
14.581242811405815

>  <path>  (997) 
/opt/xchem-fragalysis-2/maxwin/BulkDock/SCRATCH/511015/C21708-P30/C21708-P30.minimised.mol

>  <scratch_subdir>  (997) 
/opt/xchem-fragalysis-2/maxwin/BulkDock/SCRATCH/511015/C21708-P30

>  <fragmenstein_runtime>  (997) 
20.41325807571411

>  <fragmenstein_outcome>  (997) 
too moved

>  <fragmenstein_mode>  (997) 
expansion

>  <fragmenstein_error>  (997) 


$$$$
C21710-P44
     RDKit          3D

 47 49  0  0  0  0  0  0  0  0999 V2000
   -9.1474   -8.3583   18.5459 O   0  0  0  0  0  0  0  0  0  0  0  0
   -9.5402   -7.7357   17.6126 C   0  0  0  0  0  0  0  0  0  0  0  0
   -8.9716   -6.5933   16.9366 N   0  0  0  0  0  0  0  0  0  0  0  0
   -7.7458   -5.8345   17.1977 C   0  0  0  0  0  0  0  0  0  0  0  0
   -7.8627   -4.5721   18.1144 C   0  0  0  0  0  0  0  0  0  0  0  0
   -7.7786   -4.7805   19.6033 C   0  0  0  0  0  0  0  0  0  0  0  0
   -6.9989   -3.8806   20.2191 C   0  0  0  0  0  0  0  0  0  0  0  0
   -6.4115   -2.9138   19.2519 C   0  0  0  0  0  0  0  0  0  0  0  0
   -6.6738   -3.5976   17.9085 C   0  0  0  0  0  0  0  0  0  0  0  0
  -10.7945   -7.9667   17.0039 N   0  0  0  0  0  0  0  0  0  0  0  0
  -10.5181   -9.2082   15.6586 C   0  0  0  0  0  0  0  0  0  0  0  0
  -10.6409  -10.9748   15.8629 C   0  0  0  0  0  0  0  0  0  0  0  0
  -12.1264  -11.2126   15.7186 C   0  0  0  0  0  0  0  0  0  0  0  0
  -12.8296  -12.4882   16.1985 C   0  0  0  0  0  0  0  0  0  0  0  0
  -12.6670  -13.7127   15.3052 C   0  0  0  0  0  0  0  0  0  0  0  0
  -13.2037  -14.8058   16.2096 C   0  0  0  0  0  0  0  0  0  0  0  0
  -12.6526  -14.4146   17.5697 C   0  0  0  0  0  0  0  0  0  0  0  0
  -12.5312  -12.9462   17.5590 N   0  0  0  0  0  0  0  0  0  0  0  0
  -12.5383   -9.9578   16.4522 C   0  0  0  0  0  0  0  0  0  0  0  0
  -11.3156   -8.8064   15.9262 C   0  0  0  0  0  0  0  0  0  0  0  0
   -9.6199   -6.2708   16.2325 H   0  0  0  0  0  0  0  0  0  0  0  0
   -7.3940   -5.5200   16.2085 H   0  0  0  0  0  0  0  0  0  0  0  0
   -7.0169   -6.5408   17.5971 H   0  0  0  0  0  0  0  0  0  0  0  0
   -8.8055   -4.0576   17.8887 H   0  0  0  0  0  0  0  0  0  0  0  0
   -8.3158   -5.5793   20.0973 H   0  0  0  0  0  0  0  0  0  0  0  0
   -6.8192   -3.8464   21.2834 H   0  0  0  0  0  0  0  0  0  0  0  0
   -6.9312   -1.9547   19.3003 H   0  0  0  0  0  0  0  0  0  0  0  0
   -5.3414   -2.7614   19.4166 H   0  0  0  0  0  0  0  0  0  0  0  0
   -5.7749   -4.1432   17.5937 H   0  0  0  0  0  0  0  0  0  0  0  0
   -6.8902   -2.8665   17.1216 H   0  0  0  0  0  0  0  0  0  0  0  0
  -10.0566   -8.8615   14.5982 H   0  0  0  0  0  0  0  0  0  0  0  0
   -9.3934   -9.3146   15.9497 H   0  0  0  0  0  0  0  0  0  0  0  0
  -10.2328  -11.2268   16.8486 H   0  0  0  0  0  0  0  0  0  0  0  0
  -10.0588  -11.4520   15.0686 H   0  0  0  0  0  0  0  0  0  0  0  0
  -12.3831  -11.0780   14.6582 H   0  0  0  0  0  0  0  0  0  0  0  0
  -13.9042  -12.2501   16.1998 H   0  0  0  0  0  0  0  0  0  0  0  0
  -13.2461  -13.6332   14.3800 H   0  0  0  0  0  0  0  0  0  0  0  0
  -11.6184  -13.8612   15.0433 H   0  0  0  0  0  0  0  0  0  0  0  0
  -14.3005  -14.7617   16.2276 H   0  0  0  0  0  0  0  0  0  0  0  0
  -12.9292  -15.8111   15.9005 H   0  0  0  0  0  0  0  0  0  0  0  0
  -13.3071  -14.7461   18.3813 H   0  0  0  0  0  0  0  0  0  0  0  0
  -11.6642  -14.8492   17.7362 H   0  0  0  0  0  0  0  0  0  0  0  0
  -11.5894  -12.6822   17.8585 H   0  0  0  0  0  0  0  0  0  0  0  0
  -12.4853  -10.0412   17.5450 H   0  0  0  0  0  0  0  0  0  0  0  0
  -13.5370   -9.6182   16.1508 H   0  0  0  0  0  0  0  0  0  0  0  0
  -12.2100   -8.0998   16.1765 H   0  0  0  0  0  0  0  0  0  0  0  0
  -11.7504   -8.2395   14.8739 H   0  0  0  0  0  0  0  0  0  0  0  0
  1  2  2  0
  2  3  1  0
  3  4  1  0
  4  5  1  0
  5  6  1  0
  6  7  2  0
  7  8  1  0
  8  9  1  0
  2 10  1  0
 10 11  1  0
 11 12  1  0
 12 13  1  0
 13 14  1  0
 14 15  1  0
 15 16  1  0
 16 17  1  0
 17 18  1  0
 13 19  1  0
 19 20  1  0
  9  5  1  0
 20 10  1  0
 18 14  1  0
  3 21  1  0
  4 22  1  0
  4 23  1  0
  5 24  1  0
  6 25  1  0
  7 26  1  0
  8 27  1  0
  8 28  1  0
  9 29  1  0
  9 30  1  0
 11 31  1  0
 11 32  1  0
 12 33  1  0
 12 34  1  0
 13 35  1  0
 14 36  1  0
 15 37  1  0
 15 38  1  0
 16 39  1  0
 16 40  1  0
 17 41  1  0
 17 42  1  0
 18 43  1  0
 19 44  1  0
 19 45  1  0
 20 46  1  0
 20 47  1  0
M  END
>  <Energy>  (998) 
524.5222343661901

>  <compound_id>  (998) 
21710

>  <target_id>  (998) 
1

>  <reference_id>  (998) 
44

>  <inspiration_ids>  (998) 
[44, 30]

>  <energy_score>  (998) 
541.2805787233117

>  <distance_score>  (998) 
14.424217727565436

>  <path>  (998) 
/opt/xchem-fragalysis-2/maxwin/BulkDock/SCRATCH/511015/C21710-P44/C21710-P44.minimised.mol

>  <scratch_subdir>  (998) 
/opt/xchem-fragalysis-2/maxwin/BulkDock/SCRATCH/511015/C21710-P44

>  <fragmenstein_runtime>  (998) 
23.637588262557983

>  <fragmenstein_outcome>  (998) 
too moved

>  <fragmenstein_mode>  (998) 
expansion

>  <fragmenstein_error>  (998) 


$$$$
C21710-P30
     RDKit          3D

 47 49  0  0  0  0  0  0  0  0999 V2000
  -13.8174  -20.7092   16.0833 O   0  0  0  0  0  0  0  0  0  0  0  0
  -14.0426  -20.3026   15.0141 C   0  0  0  0  0  0  0  0  0  0  0  0
  -14.0152  -18.8029   14.7051 N   0  0  0  0  0  0  0  0  0  0  0  0
  -13.8008  -17.3689   15.7516 C   0  0  0  0  0  0  0  0  0  0  0  0
  -13.6463  -15.6797   15.7842 C   0  0  0  0  0  0  0  0  0  0  0  0
  -13.1483  -15.1791   17.1597 C   0  0  0  0  0  0  0  0  0  0  0  0
  -12.4517  -14.0332   17.1176 C   0  0  0  0  0  0  0  0  0  0  0  0
  -12.3407  -13.5267   15.7236 C   0  0  0  0  0  0  0  0  0  0  0  0
  -12.8382  -14.7289   14.8685 C   0  0  0  0  0  0  0  0  0  0  0  0
  -14.5503  -21.6147   14.0049 N   0  0  0  0  0  0  0  0  0  0  0  0
  -16.0317  -21.9637   13.9139 C   0  0  0  0  0  0  0  0  0  0  0  0
  -16.5112  -22.7989   12.7062 C   0  0  0  0  0  0  0  0  0  0  0  0
  -15.6940  -24.0913   12.5903 C   0  0  0  0  0  0  0  0  0  0  0  0
  -16.2932  -25.1480   11.6328 C   0  0  0  0  0  0  0  0  0  0  0  0
  -15.5283  -26.4725   11.6287 C   0  0  0  0  0  0  0  0  0  0  0  0
  -14.5922  -26.4023   10.4364 C   0  0  0  0  0  0  0  0  0  0  0  0
  -15.1851  -25.3386    9.5289 C   0  0  0  0  0  0  0  0  0  0  0  0
  -16.3478  -24.7773   10.2182 N   0  0  0  0  0  0  0  0  0  0  0  0
  -14.2803  -23.7058   12.2221 C   0  0  0  0  0  0  0  0  0  0  0  0
  -13.7035  -22.5904   13.1126 C   0  0  0  0  0  0  0  0  0  0  0  0
  -14.3099  -18.6868   13.8110 H   0  0  0  0  0  0  0  0  0  0  0  0
  -13.2137  -17.7599   16.5838 H   0  0  0  0  0  0  0  0  0  0  0  0
  -14.8780  -17.2866   15.9052 H   0  0  0  0  0  0  0  0  0  0  0  0
  -14.6879  -15.3244   15.7159 H   0  0  0  0  0  0  0  0  0  0  0  0
  -13.3780  -15.6996   18.0810 H   0  0  0  0  0  0  0  0  0  0  0  0
  -12.0403  -13.5222   17.9784 H   0  0  0  0  0  0  0  0  0  0  0  0
  -11.3136  -13.2579   15.4620 H   0  0  0  0  0  0  0  0  0  0  0  0
  -12.9827  -12.6513   15.5816 H   0  0  0  0  0  0  0  0  0  0  0  0
  -12.0016  -15.2212   14.3794 H   0  0  0  0  0  0  0  0  0  0  0  0
  -13.4722  -14.3619   14.0517 H   0  0  0  0  0  0  0  0  0  0  0  0
  -16.2942  -22.6182   14.7499 H   0  0  0  0  0  0  0  0  0  0  0  0
  -16.6144  -21.0423   13.9741 H   0  0  0  0  0  0  0  0  0  0  0  0
  -16.4787  -22.2105   11.7840 H   0  0  0  0  0  0  0  0  0  0  0  0
  -17.5678  -23.0488   12.8667 H   0  0  0  0  0  0  0  0  0  0  0  0
  -15.6715  -24.5583   13.5857 H   0  0  0  0  0  0  0  0  0  0  0  0
  -17.3179  -25.3417   11.9739 H   0  0  0  0  0  0  0  0  0  0  0  0
  -14.9939  -26.6748   12.5622 H   0  0  0  0  0  0  0  0  0  0  0  0
  -16.2348  -27.2985   11.4733 H   0  0  0  0  0  0  0  0  0  0  0  0
  -13.5793  -26.1256   10.7453 H   0  0  0  0  0  0  0  0  0  0  0  0
  -14.5243  -27.3733    9.9344 H   0  0  0  0  0  0  0  0  0  0  0  0
  -14.4442  -24.5668    9.2969 H   0  0  0  0  0  0  0  0  0  0  0  0
  -15.5038  -25.7737    8.5760 H   0  0  0  0  0  0  0  0  0  0  0  0
  -16.4112  -23.7721   10.0761 H   0  0  0  0  0  0  0  0  0  0  0  0
  -14.2106  -23.4270   11.1690 H   0  0  0  0  0  0  0  0  0  0  0  0
  -13.6186  -24.5751   12.3251 H   0  0  0  0  0  0  0  0  0  0  0  0
  -12.6403  -22.4224   12.9153 H   0  0  0  0  0  0  0  0  0  0  0  0
  -13.5245  -23.2887   13.9578 H   0  0  0  0  0  0  0  0  0  0  0  0
  1  2  2  0
  2  3  1  0
  3  4  1  0
  4  5  1  0
  5  6  1  0
  6  7  2  0
  7  8  1  0
  8  9  1  0
  2 10  1  0
 10 11  1  0
 11 12  1  0
 12 13  1  0
 13 14  1  0
 14 15  1  0
 15 16  1  0
 16 17  1  0
 17 18  1  0
 13 19  1  0
 19 20  1  0
  9  5  1  0
 20 10  1  0
 18 14  1  0
  3 21  1  0
  4 22  1  0
  4 23  1  0
  5 24  1  0
  6 25  1  0
  7 26  1  0
  8 27  1  0
  8 28  1  0
  9 29  1  0
  9 30  1  0
 11 31  1  0
 11 32  1  0
 12 33  1  0
 12 34  1  0
 13 35  1  0
 14 36  1  0
 15 37  1  0
 15 38  1  0
 16 39  1  0
 16 40  1  0
 17 41  1  0
 17 42  1  0
 18 43  1  0
 19 44  1  0
 19 45  1  0
 20 46  1  0
 20 47  1  0
M  END
>  <Energy>  (999) 
174.63714806504589

>  <compound_id>  (999) 
21710

>  <target_id>  (999) 
1

>  <reference_id>  (999) 
30

>  <inspiration_ids>  (999) 
[44, 30]

>  <energy_score>  (999) 
191.39549242215975

>  <distance_score>  (999) 
14.635975914578523

>  <path>  (999) 
/opt/xchem-fragalysis-2/maxwin/BulkDock/SCRATCH/511015/C21710-P30/C21710-P30.minimised.mol

>  <scratch_subdir>  (999) 
/opt/xchem-fragalysis-2/maxwin/BulkDock/SCRATCH/511015/C21710-P30

>  <fragmenstein_runtime>  (999) 
17.96797823905945

>  <fragmenstein_outcome>  (999) 
too moved

>  <fragmenstein_mode>  (999) 
expansion

>  <fragmenstein_error>  (999) 


$$$$
C21715-P44
     RDKit          3D

 48 50  0  0  0  0  0  0  0  0999 V2000
   -9.0028  -19.2779   18.2606 C   0  0  0  0  0  0  0  0  0  0  0  0
   -9.7879  -18.0858   17.8236 N   0  0  0  0  0  0  0  0  0  0  0  0
  -10.0669  -19.1480   16.2437 C   0  0  0  0  0  0  0  0  0  0  0  0
   -9.9912  -20.8677   15.2071 C   0  0  0  0  0  0  0  0  0  0  0  0
  -10.6726  -20.8485   13.7216 C   0  0  0  0  0  0  0  0  0  0  0  0
  -10.6553  -22.2423   13.0883 C   0  0  0  0  0  0  0  0  0  0  0  0
   -9.8931  -23.0907   14.0309 C   0  0  0  0  0  0  0  0  0  0  0  0
   -9.0780  -22.1274   14.7546 N   0  0  0  0  0  0  0  0  0  0  0  0
   -8.9069  -16.7403   18.0331 C   0  0  0  0  0  0  0  0  0  0  0  0
   -8.1692  -16.2125   17.2425 O   0  0  0  0  0  0  0  0  0  0  0  0
   -9.0554  -15.7945   19.3868 C   0  0  0  0  0  0  0  0  0  0  0  0
   -8.6719  -13.8372   19.4034 C   0  0  0  0  0  0  0  0  0  0  0  0
   -8.9333  -12.6764   18.7122 C   0  0  0  0  0  0  0  0  0  0  0  0
   -7.4069  -11.9303   18.1794 S   0  0  0  0  0  0  0  0  0  0  0  0
   -6.3432  -12.3865   19.3746 C   0  0  0  0  0  0  0  0  0  0  0  0
   -4.5597  -11.6056   19.9807 C   0  0  0  0  0  0  0  0  0  0  0  0
   -3.5108  -10.8470   18.6961 C   0  0  0  0  0  0  0  0  0  0  0  0
   -2.5124   -9.4284   18.7892 C   0  0  0  0  0  0  0  0  0  0  0  0
   -2.8176   -8.2413   19.7486 N   0  0  0  0  0  0  0  0  0  0  0  0
   -3.4951   -8.3700   21.3942 C   0  0  0  0  0  0  0  0  0  0  0  0
   -3.9974  -10.3151   21.4354 C   0  0  0  0  0  0  0  0  0  0  0  0
   -7.3196  -13.2397   19.9802 N   0  0  0  0  0  0  0  0  0  0  0  0
   -9.0777  -20.2654   17.8189 H   0  0  0  0  0  0  0  0  0  0  0  0
   -9.2723  -19.3955   19.3189 H   0  0  0  0  0  0  0  0  0  0  0  0
   -7.9454  -18.9951   18.3124 H   0  0  0  0  0  0  0  0  0  0  0  0
   -9.7219  -18.3451   15.6177 H   0  0  0  0  0  0  0  0  0  0  0  0
  -10.9381  -18.6036   15.8536 H   0  0  0  0  0  0  0  0  0  0  0  0
  -10.2015  -21.5112   16.0198 H   0  0  0  0  0  0  0  0  0  0  0  0
  -11.6337  -20.3671   13.6680 H   0  0  0  0  0  0  0  0  0  0  0  0
  -10.2044  -20.2082   12.9819 H   0  0  0  0  0  0  0  0  0  0  0  0
  -10.1392  -22.2057   12.1236 H   0  0  0  0  0  0  0  0  0  0  0  0
  -11.6445  -22.6713   12.9118 H   0  0  0  0  0  0  0  0  0  0  0  0
  -10.5208  -23.6778   14.6981 H   0  0  0  0  0  0  0  0  0  0  0  0
   -9.3471  -23.8240   13.4382 H   0  0  0  0  0  0  0  0  0  0  0  0
   -8.6919  -22.5664   15.6002 H   0  0  0  0  0  0  0  0  0  0  0  0
   -8.5421  -16.3227   20.2057 H   0  0  0  0  0  0  0  0  0  0  0  0
  -10.1220  -15.8913   19.5017 H   0  0  0  0  0  0  0  0  0  0  0  0
   -9.8432  -12.3420   18.2370 H   0  0  0  0  0  0  0  0  0  0  0  0
   -4.0020  -12.5106   20.1042 H   0  0  0  0  0  0  0  0  0  0  0  0
   -2.7773  -11.6309   18.4869 H   0  0  0  0  0  0  0  0  0  0  0  0
   -3.5573  -10.2745   19.5712 H   0  0  0  0  0  0  0  0  0  0  0  0
   -1.4811   -9.7532   18.9764 H   0  0  0  0  0  0  0  0  0  0  0  0
   -2.5253   -9.0074   17.7761 H   0  0  0  0  0  0  0  0  0  0  0  0
   -2.0850   -7.5285   19.7508 H   0  0  0  0  0  0  0  0  0  0  0  0
   -2.8917   -7.9637   22.2144 H   0  0  0  0  0  0  0  0  0  0  0  0
   -4.2594   -7.6385   21.6353 H   0  0  0  0  0  0  0  0  0  0  0  0
   -3.6532  -10.4783   22.4499 H   0  0  0  0  0  0  0  0  0  0  0  0
   -4.8881  -10.2806   21.8930 H   0  0  0  0  0  0  0  0  0  0  0  0
  1  2  1  0
  2  3  1  0
  3  4  1  0
  4  5  1  0
  5  6  1  0
  6  7  1  0
  7  8  1  0
  2  9  1  0
  9 10  2  0
  9 11  1  0
 11 12  1  0
 12 13  2  0
 13 14  1  0
 14 15  1  0
 15 16  1  0
 16 17  1  0
 17 18  1  0
 18 19  1  0
 19 20  1  0
 20 21  1  0
 15 22  2  0
  8  4  1  0
 22 12  1  0
 21 16  1  0
  1 23  1  0
  1 24  1  0
  1 25  1  0
  3 26  1  0
  3 27  1  0
  4 28  1  0
  5 29  1  0
  5 30  1  0
  6 31  1  0
  6 32  1  0
  7 33  1  0
  7 34  1  0
  8 35  1  0
 11 36  1  0
 11 37  1  0
 13 38  1  0
 16 39  1  0
 17 40  1  0
 17 41  1  0
 18 42  1  0
 18 43  1  0
 19 44  1  0
 20 45  1  0
 20 46  1  0
 21 47  1  0
 21 48  1  0
M  END
>  <Energy>  (1000) 
907.99159696223217

>  <compound_id>  (1000) 
21715

>  <target_id>  (1000) 
1

>  <reference_id>  (1000) 
44

>  <inspiration_ids>  (1000) 
[44, 30]

>  <energy_score>  (1000) 
804.3007057370131

>  <distance_score>  (1000) 
11.301404140332266

>  <path>  (1000) 
/opt/xchem-fragalysis-2/maxwin/BulkDock/SCRATCH/511015/C21715-P44/C21715-P44.minimised.mol

>  <scratch_subdir>  (1000) 
/opt/xchem-fragalysis-2/maxwin/BulkDock/SCRATCH/511015/C21715-P44

>  <fragmenstein_runtime>  (1000) 
17.58974552154541

>  <fragmenstein_outcome>  (1000) 
too moved

>  <fragmenstein_mode>  (1000) 
expansion

>  <fragmenstein_error>  (1000) 


$$$$
C21715-P30
     RDKit          3D

 48 50  0  0  0  0  0  0  0  0999 V2000
   -0.1095  -12.6933   18.9371 C   0  0  0  0  0  0  0  0  0  0  0  0
   -0.3705  -12.2438   17.5244 N   0  0  0  0  0  0  0  0  0  0  0  0
   -0.9157  -13.7158   17.3975 C   0  0  0  0  0  0  0  0  0  0  0  0
   -1.2127  -14.2540   15.9463 C   0  0  0  0  0  0  0  0  0  0  0  0
   -2.4021  -15.2265   15.9241 C   0  0  0  0  0  0  0  0  0  0  0  0
   -2.2966  -15.8875   14.5690 C   0  0  0  0  0  0  0  0  0  0  0  0
   -0.8028  -15.9372   14.3172 C   0  0  0  0  0  0  0  0  0  0  0  0
   -0.1795  -15.1634   15.4059 N   0  0  0  0  0  0  0  0  0  0  0  0
   -1.0797  -10.9589   17.5264 C   0  0  0  0  0  0  0  0  0  0  0  0
   -2.2601  -10.7186   17.5210 O   0  0  0  0  0  0  0  0  0  0  0  0
   -0.0537   -9.7835   17.6568 C   0  0  0  0  0  0  0  0  0  0  0  0
   -0.6354   -8.3780   17.8673 C   0  0  0  0  0  0  0  0  0  0  0  0
   -1.2607   -7.6215   16.8952 C   0  0  0  0  0  0  0  0  0  0  0  0
   -1.5875   -6.0377   17.4601 S   0  0  0  0  0  0  0  0  0  0  0  0
   -0.9795   -6.4385   19.0293 C   0  0  0  0  0  0  0  0  0  0  0  0
   -1.0959   -5.4586   20.2203 C   0  0  0  0  0  0  0  0  0  0  0  0
    0.2808   -4.9423   20.6945 C   0  0  0  0  0  0  0  0  0  0  0  0
    0.2068   -3.5735   21.3869 C   0  0  0  0  0  0  0  0  0  0  0  0
   -1.0155   -3.4635   22.1581 N   0  0  0  0  0  0  0  0  0  0  0  0
   -2.2116   -3.4675   21.3251 C   0  0  0  0  0  0  0  0  0  0  0  0
   -2.0291   -4.2466   20.0177 C   0  0  0  0  0  0  0  0  0  0  0  0
   -0.4528   -7.6648   19.0821 N   0  0  0  0  0  0  0  0  0  0  0  0
   -0.9773  -13.0526   19.5071 H   0  0  0  0  0  0  0  0  0  0  0  0
    0.7643  -13.3586   19.0002 H   0  0  0  0  0  0  0  0  0  0  0  0
    0.2139  -11.8088   19.5004 H   0  0  0  0  0  0  0  0  0  0  0  0
   -0.2603  -14.4893   17.8310 H   0  0  0  0  0  0  0  0  0  0  0  0
   -1.8996  -13.7095   17.8820 H   0  0  0  0  0  0  0  0  0  0  0  0
   -1.3354  -13.4223   15.2482 H   0  0  0  0  0  0  0  0  0  0  0  0
   -2.2923  -15.9870   16.7086 H   0  0  0  0  0  0  0  0  0  0  0  0
   -3.3636  -14.7368   16.0688 H   0  0  0  0  0  0  0  0  0  0  0  0
   -2.7898  -15.2708   13.8086 H   0  0  0  0  0  0  0  0  0  0  0  0
   -2.7590  -16.8772   14.5614 H   0  0  0  0  0  0  0  0  0  0  0  0
   -0.4249  -16.9640   14.3321 H   0  0  0  0  0  0  0  0  0  0  0  0
   -0.5625  -15.4987   13.3426 H   0  0  0  0  0  0  0  0  0  0  0  0
    0.6113  -14.6254   15.0525 H   0  0  0  0  0  0  0  0  0  0  0  0
    0.5418   -9.7724   16.7354 H   0  0  0  0  0  0  0  0  0  0  0  0
    0.6306   -9.9838   18.4869 H   0  0  0  0  0  0  0  0  0  0  0  0
   -1.5085   -7.9094   15.8838 H   0  0  0  0  0  0  0  0  0  0  0  0
   -1.5245   -6.0601   21.0361 H   0  0  0  0  0  0  0  0  0  0  0  0
    0.9788   -4.8668   19.8511 H   0  0  0  0  0  0  0  0  0  0  0  0
    0.7105   -5.6825   21.3823 H   0  0  0  0  0  0  0  0  0  0  0  0
    0.2702   -2.7662   20.6474 H   0  0  0  0  0  0  0  0  0  0  0  0
    1.0770   -3.4646   22.0422 H   0  0  0  0  0  0  0  0  0  0  0  0
   -1.0187   -2.6057   22.7245 H   0  0  0  0  0  0  0  0  0  0  0  0
   -3.0292   -3.9087   21.9060 H   0  0  0  0  0  0  0  0  0  0  0  0
   -2.5096   -2.4398   21.0857 H   0  0  0  0  0  0  0  0  0  0  0  0
   -1.6039   -3.5776   19.2569 H   0  0  0  0  0  0  0  0  0  0  0  0
   -3.0138   -4.5430   19.6463 H   0  0  0  0  0  0  0  0  0  0  0  0
  1  2  1  0
  2  3  1  0
  3  4  1  0
  4  5  1  0
  5  6  1  0
  6  7  1  0
  7  8  1  0
  2  9  1  0
  9 10  2  0
  9 11  1  0
 11 12  1  0
 12 13  2  0
 13 14  1  0
 14 15  1  0
 15 16  1  0
 16 17  1  0
 17 18  1  0
 18 19  1  0
 19 20  1  0
 20 21  1  0
 15 22  2  0
  8  4  1  0
 22 12  1  0
 21 16  1  0
  1 23  1  0
  1 24  1  0
  1 25  1  0
  3 26  1  0
  3 27  1  0
  4 28  1  0
  5 29  1  0
  5 30  1  0
  6 31  1  0
  6 32  1  0
  7 33  1  0
  7 34  1  0
  8 35  1  0
 11 36  1  0
 11 37  1  0
 13 38  1  0
 16 39  1  0
 17 40  1  0
 17 41  1  0
 18 42  1  0
 18 43  1  0
 19 44  1  0
 20 45  1  0
 20 46  1  0
 21 47  1  0
 21 48  1  0
M  END
>  <Energy>  (1001) 
115.46438002671123

>  <compound_id>  (1001) 
21715

>  <target_id>  (1001) 
1

>  <reference_id>  (1001) 
30

>  <inspiration_ids>  (1001) 
[44, 30]

>  <energy_score>  (1001) 
11.773488801504243

>  <distance_score>  (1001) 
14.718887749410621

>  <path>  (1001) 
/opt/xchem-fragalysis-2/maxwin/BulkDock/SCRATCH/511015/C21715-P30/C21715-P30.minimised.mol

>  <scratch_subdir>  (1001) 
/opt/xchem-fragalysis-2/maxwin/BulkDock/SCRATCH/511015/C21715-P30

>  <fragmenstein_runtime>  (1001) 
35.35711073875427

>  <fragmenstein_outcome>  (1001) 
too moved

>  <fragmenstein_mode>  (1001) 
expansion

>  <fragmenstein_error>  (1001) 


$$$$
C21716-P44
     RDKit          3D

 51 53  0  0  0  0  0  0  0  0999 V2000
   -8.5662  -21.7563   14.1662 C   0  0  0  0  0  0  0  0  0  0  0  0
  -10.0103  -20.6965   15.0767 C   0  0  0  0  0  0  0  0  0  0  0  0
   -9.7078  -21.5821   16.2244 C   0  0  0  0  0  0  0  0  0  0  0  0
  -10.1312  -18.7568   15.8550 N   0  0  0  0  0  0  0  0  0  0  0  0
   -9.4252  -17.9674   17.4927 C   0  0  0  0  0  0  0  0  0  0  0  0
   -8.8757  -18.7016   18.2888 O   0  0  0  0  0  0  0  0  0  0  0  0
   -9.2477  -15.9980   18.1403 C   0  0  0  0  0  0  0  0  0  0  0  0
   -8.8324  -14.2359   19.2077 C   0  0  0  0  0  0  0  0  0  0  0  0
   -9.0491  -12.8324   18.8237 C   0  0  0  0  0  0  0  0  0  0  0  0
   -7.4941  -12.0301   18.1860 S   0  0  0  0  0  0  0  0  0  0  0  0
   -6.4145  -12.4092   19.3954 C   0  0  0  0  0  0  0  0  0  0  0  0
   -4.6100  -11.6326   19.9867 C   0  0  0  0  0  0  0  0  0  0  0  0
   -4.0217  -10.3584   21.4097 C   0  0  0  0  0  0  0  0  0  0  0  0
   -3.5196   -8.4510   21.5015 C   0  0  0  0  0  0  0  0  0  0  0  0
   -3.0037   -8.4405   19.8201 N   0  0  0  0  0  0  0  0  0  0  0  0
   -2.7125   -9.6450   18.9542 C   0  0  0  0  0  0  0  0  0  0  0  0
   -3.5842  -11.0773   18.7322 C   0  0  0  0  0  0  0  0  0  0  0  0
   -7.4214  -13.3680   19.9202 N   0  0  0  0  0  0  0  0  0  0  0  0
  -10.7624  -21.9201   13.6857 C   0  0  0  0  0  0  0  0  0  0  0  0
  -12.0262  -22.9102   13.1816 C   0  0  0  0  0  0  0  0  0  0  0  0
  -11.5141  -23.8774   12.1270 C   0  0  0  0  0  0  0  0  0  0  0  0
  -10.2414  -24.3073   12.7439 C   0  0  0  0  0  0  0  0  0  0  0  0
  -10.1376  -23.4091   13.8717 N   0  0  0  0  0  0  0  0  0  0  0  0
   -8.6847  -21.9228   13.0739 H   0  0  0  0  0  0  0  0  0  0  0  0
   -7.5615  -21.3753   14.0847 H   0  0  0  0  0  0  0  0  0  0  0  0
   -8.4132  -22.6861   14.6527 H   0  0  0  0  0  0  0  0  0  0  0  0
   -8.8460  -22.0957   16.0021 H   0  0  0  0  0  0  0  0  0  0  0  0
  -10.0785  -22.5840   16.1513 H   0  0  0  0  0  0  0  0  0  0  0  0
   -9.3706  -21.0722   17.1341 H   0  0  0  0  0  0  0  0  0  0  0  0
  -10.6298  -18.0387   15.3377 H   0  0  0  0  0  0  0  0  0  0  0  0
   -8.3062  -15.9511   17.5917 H   0  0  0  0  0  0  0  0  0  0  0  0
   -9.1602  -16.4338   19.1593 H   0  0  0  0  0  0  0  0  0  0  0  0
   -9.9096  -12.3894   18.3409 H   0  0  0  0  0  0  0  0  0  0  0  0
   -4.0856  -12.5435   20.1526 H   0  0  0  0  0  0  0  0  0  0  0  0
   -4.9006  -10.3094   21.8846 H   0  0  0  0  0  0  0  0  0  0  0  0
   -3.6685  -10.5361   22.4151 H   0  0  0  0  0  0  0  0  0  0  0  0
   -4.2966   -7.7234   21.7318 H   0  0  0  0  0  0  0  0  0  0  0  0
   -2.8869   -8.0374   22.2814 H   0  0  0  0  0  0  0  0  0  0  0  0
   -2.3093   -7.6971   19.7021 H   0  0  0  0  0  0  0  0  0  0  0  0
   -2.7067   -9.2259   17.9359 H   0  0  0  0  0  0  0  0  0  0  0  0
   -1.6520   -9.9079   19.0675 H   0  0  0  0  0  0  0  0  0  0  0  0
   -4.1363  -10.9897   17.8065 H   0  0  0  0  0  0  0  0  0  0  0  0
   -2.8564  -11.8707   18.4992 H   0  0  0  0  0  0  0  0  0  0  0  0
  -10.4223  -21.4653   12.7531 H   0  0  0  0  0  0  0  0  0  0  0  0
  -12.4295  -23.5727   13.9623 H   0  0  0  0  0  0  0  0  0  0  0  0
  -12.9194  -22.4405   12.8176 H   0  0  0  0  0  0  0  0  0  0  0  0
  -11.3156  -23.3934   11.1769 H   0  0  0  0  0  0  0  0  0  0  0  0
  -12.2094  -24.7058   11.9603 H   0  0  0  0  0  0  0  0  0  0  0  0
  -10.2784  -25.3466   13.0864 H   0  0  0  0  0  0  0  0  0  0  0  0
   -9.3925  -24.2199   12.0666 H   0  0  0  0  0  0  0  0  0  0  0  0
  -10.5014  -23.8346   14.7207 H   0  0  0  0  0  0  0  0  0  0  0  0
  1  2  1  0
  2  3  1  0
  2  4  1  0
  4  5  1  0
  5  6  2  0
  5  7  1  0
  7  8  1  0
  8  9  2  0
  9 10  1  0
 10 11  1  0
 11 12  1  0
 12 13  1  0
 13 14  1  0
 14 15  1  0
 15 16  1  0
 16 17  1  0
 11 18  2  0
  2 19  1  0
 19 20  1  0
 20 21  1  0
 21 22  1  0
 22 23  1  0
 18  8  1  0
 23 19  1  0
 17 12  1  0
  1 24  1  0
  1 25  1  0
  1 26  1  0
  3 27  1  0
  3 28  1  0
  3 29  1  0
  4 30  1  0
  7 31  1  0
  7 32  1  0
  9 33  1  0
 12 34  1  0
 13 35  1  0
 13 36  1  0
 14 37  1  0
 14 38  1  0
 15 39  1  0
 16 40  1  0
 16 41  1  0
 17 42  1  0
 17 43  1  0
 19 44  1  0
 20 45  1  0
 20 46  1  0
 21 47  1  0
 21 48  1  0
 22 49  1  0
 22 50  1  0
 23 51  1  0
M  END
>  <Energy>  (1002) 
1353.5240340987359

>  <compound_id>  (1002) 
21716

>  <target_id>  (1002) 
1

>  <reference_id>  (1002) 
44

>  <inspiration_ids>  (1002) 
[44, 30]

>  <energy_score>  (1002) 
1254.4033267251255

>  <distance_score>  (1002) 
10.731563267709726

>  <path>  (1002) 
/opt/xchem-fragalysis-2/maxwin/BulkDock/SCRATCH/511015/C21716-P44/C21716-P44.minimised.mol

>  <scratch_subdir>  (1002) 
/opt/xchem-fragalysis-2/maxwin/BulkDock/SCRATCH/511015/C21716-P44

>  <fragmenstein_runtime>  (1002) 
13.000506162643433

>  <fragmenstein_outcome>  (1002) 
too moved

>  <fragmenstein_mode>  (1002) 
expansion

>  <fragmenstein_error>  (1002) 


$$$$
C21716-P30
     RDKit          3D

 51 53  0  0  0  0  0  0  0  0999 V2000
   -9.7923  -18.9852   19.5166 C   0  0  0  0  0  0  0  0  0  0  0  0
   -9.1017  -18.6647   18.1553 C   0  0  0  0  0  0  0  0  0  0  0  0
   -9.7290  -17.7309   17.1676 C   0  0  0  0  0  0  0  0  0  0  0  0
   -8.2030  -17.0707   18.9802 N   0  0  0  0  0  0  0  0  0  0  0  0
   -8.8428  -15.2963   19.3825 C   0  0  0  0  0  0  0  0  0  0  0  0
   -9.9889  -15.0679   19.2055 O   0  0  0  0  0  0  0  0  0  0  0  0
   -7.7081  -13.4703   19.9747 C   0  0  0  0  0  0  0  0  0  0  0  0
   -6.5317  -12.1386   21.3067 C   0  0  0  0  0  0  0  0  0  0  0  0
   -6.1947  -11.7844   23.0821 C   0  0  0  0  0  0  0  0  0  0  0  0
   -3.9903  -10.8963   23.7101 S   0  0  0  0  0  0  0  0  0  0  0  0
   -4.0653   -9.9371   22.0056 C   0  0  0  0  0  0  0  0  0  0  0  0
   -3.6656   -7.9361   22.0133 C   0  0  0  0  0  0  0  0  0  0  0  0
   -4.5687   -6.4942   22.4723 C   0  0  0  0  0  0  0  0  0  0  0  0
   -4.5090   -5.0928   21.7445 C   0  0  0  0  0  0  0  0  0  0  0  0
   -3.1881   -4.6149   21.3950 N   0  0  0  0  0  0  0  0  0  0  0  0
   -2.2154   -5.3000   22.1988 C   0  0  0  0  0  0  0  0  0  0  0  0
   -2.1966   -6.8617   22.0911 C   0  0  0  0  0  0  0  0  0  0  0  0
   -4.9274  -11.0437   20.9427 N   0  0  0  0  0  0  0  0  0  0  0  0
   -9.0377  -20.5820   17.2050 C   0  0  0  0  0  0  0  0  0  0  0  0
   -9.0453  -22.1553   15.8448 C   0  0  0  0  0  0  0  0  0  0  0  0
   -9.0469  -22.2649   14.3143 C   0  0  0  0  0  0  0  0  0  0  0  0
  -10.1166  -21.3486   14.2324 C   0  0  0  0  0  0  0  0  0  0  0  0
   -9.9254  -20.5357   15.5958 N   0  0  0  0  0  0  0  0  0  0  0  0
   -9.3738  -19.9017   19.9437 H   0  0  0  0  0  0  0  0  0  0  0  0
  -10.8822  -19.0023   19.5077 H   0  0  0  0  0  0  0  0  0  0  0  0
   -9.5526  -18.2434   20.2771 H   0  0  0  0  0  0  0  0  0  0  0  0
  -10.1913  -18.1324   16.2686 H   0  0  0  0  0  0  0  0  0  0  0  0
   -8.9426  -17.0639   16.7964 H   0  0  0  0  0  0  0  0  0  0  0  0
  -10.4947  -17.2198   17.7169 H   0  0  0  0  0  0  0  0  0  0  0  0
   -7.2382  -17.1396   19.2604 H   0  0  0  0  0  0  0  0  0  0  0  0
   -8.7703  -13.1941   20.1733 H   0  0  0  0  0  0  0  0  0  0  0  0
   -7.5467  -12.8741   19.0459 H   0  0  0  0  0  0  0  0  0  0  0  0
   -6.0707  -12.5429   23.8182 H   0  0  0  0  0  0  0  0  0  0  0  0
   -3.5686   -7.8996   20.9441 H   0  0  0  0  0  0  0  0  0  0  0  0
   -5.5771   -6.5766   22.7688 H   0  0  0  0  0  0  0  0  0  0  0  0
   -4.1525   -6.1270   23.3929 H   0  0  0  0  0  0  0  0  0  0  0  0
   -5.1860   -5.0090   20.8916 H   0  0  0  0  0  0  0  0  0  0  0  0
   -4.9356   -4.3517   22.4285 H   0  0  0  0  0  0  0  0  0  0  0  0
   -2.9968   -4.7624   20.4067 H   0  0  0  0  0  0  0  0  0  0  0  0
   -2.3209   -4.9879   23.2445 H   0  0  0  0  0  0  0  0  0  0  0  0
   -1.2185   -4.9351   21.9172 H   0  0  0  0  0  0  0  0  0  0  0  0
   -1.5628   -7.0259   21.2114 H   0  0  0  0  0  0  0  0  0  0  0  0
   -1.6705   -6.9924   23.0301 H   0  0  0  0  0  0  0  0  0  0  0  0
   -9.1136  -21.1961   18.0745 H   0  0  0  0  0  0  0  0  0  0  0  0
   -8.0402  -22.5899   15.6735 H   0  0  0  0  0  0  0  0  0  0  0  0
   -9.7192  -22.9480   16.1351 H   0  0  0  0  0  0  0  0  0  0  0  0
   -8.1148  -21.9980   13.8034 H   0  0  0  0  0  0  0  0  0  0  0  0
   -9.3288  -23.2726   13.9806 H   0  0  0  0  0  0  0  0  0  0  0  0
  -10.3099  -20.6974   13.3849 H   0  0  0  0  0  0  0  0  0  0  0  0
  -10.9019  -22.0708   14.0289 H   0  0  0  0  0  0  0  0  0  0  0  0
  -10.4586  -21.2478   16.0326 H   0  0  0  0  0  0  0  0  0  0  0  0
  1  2  1  0
  2  3  1  0
  2  4  1  0
  4  5  1  0
  5  6  2  0
  5  7  1  0
  7  8  1  0
  8  9  2  0
  9 10  1  0
 10 11  1  0
 11 12  1  0
 12 13  1  0
 13 14  1  0
 14 15  1  0
 15 16  1  0
 16 17  1  0
 11 18  2  0
  2 19  1  0
 19 20  1  0
 20 21  1  0
 21 22  1  0
 22 23  1  0
 18  8  1  0
 23 19  1  0
 17 12  1  0
  1 24  1  0
  1 25  1  0
  1 26  1  0
  3 27  1  0
  3 28  1  0
  3 29  1  0
  4 30  1  0
  7 31  1  0
  7 32  1  0
  9 33  1  0
 12 34  1  0
 13 35  1  0
 13 36  1  0
 14 37  1  0
 14 38  1  0
 15 39  1  0
 16 40  1  0
 16 41  1  0
 17 42  1  0
 17 43  1  0
 19 44  1  0
 20 45  1  0
 20 46  1  0
 21 47  1  0
 21 48  1  0
 22 49  1  0
 22 50  1  0
 23 51  1  0
M  END
>  <Energy>  (1003) 
1681.41357752057

>  <compound_id>  (1003) 
21716

>  <target_id>  (1003) 
1

>  <reference_id>  (1003) 
30

>  <inspiration_ids>  (1003) 
[44, 30]

>  <energy_score>  (1003) 
1582.2928701469925

>  <distance_score>  (1003) 
10.074766994200335

>  <path>  (1003) 
/opt/xchem-fragalysis-2/maxwin/BulkDock/SCRATCH/511015/C21716-P30/C21716-P30.minimised.mol

>  <scratch_subdir>  (1003) 
/opt/xchem-fragalysis-2/maxwin/BulkDock/SCRATCH/511015/C21716-P30

>  <fragmenstein_runtime>  (1003) 
23.46604084968567

>  <fragmenstein_outcome>  (1003) 
too moved

>  <fragmenstein_mode>  (1003) 
expansion

>  <fragmenstein_error>  (1003) 


$$$$
C21717-P44
     RDKit          3D

 51 53  0  0  0  0  0  0  0  0999 V2000
  -12.5038  -12.6511   23.2573 C   0  0  0  0  0  0  0  0  0  0  0  0
  -13.6852  -12.2475   22.3925 C   0  0  0  0  0  0  0  0  0  0  0  0
  -14.9374  -12.8383   23.1137 C   0  0  0  0  0  0  0  0  0  0  0  0
  -13.6883  -13.0442   20.9166 C   0  0  0  0  0  0  0  0  0  0  0  0
  -12.8517  -14.3051   20.6457 N   0  0  0  0  0  0  0  0  0  0  0  0
  -13.2118  -15.5907   19.9890 C   0  0  0  0  0  0  0  0  0  0  0  0
  -14.2702  -15.9883   19.5806 O   0  0  0  0  0  0  0  0  0  0  0  0
  -12.0572  -16.6836   19.8808 C   0  0  0  0  0  0  0  0  0  0  0  0
  -11.9297  -17.7283   20.7889 C   0  0  0  0  0  0  0  0  0  0  0  0
  -10.6165  -18.7996   20.3891 S   0  0  0  0  0  0  0  0  0  0  0  0
  -10.4450  -18.0577   18.8415 C   0  0  0  0  0  0  0  0  0  0  0  0
   -9.5599  -18.8159   17.5264 C   0  0  0  0  0  0  0  0  0  0  0  0
   -9.0520  -20.6206   17.3518 C   0  0  0  0  0  0  0  0  0  0  0  0
   -9.4602  -21.9039   15.8904 C   0  0  0  0  0  0  0  0  0  0  0  0
   -9.9557  -21.5018   14.5547 N   0  0  0  0  0  0  0  0  0  0  0  0
  -10.5472  -20.1533   14.4104 C   0  0  0  0  0  0  0  0  0  0  0  0
  -10.3866  -18.8013   15.7598 C   0  0  0  0  0  0  0  0  0  0  0  0
  -11.2224  -16.9557   18.7357 N   0  0  0  0  0  0  0  0  0  0  0  0
  -13.8892  -10.6212   22.4354 C   0  0  0  0  0  0  0  0  0  0  0  0
  -13.6941   -9.9517   23.8372 C   0  0  0  0  0  0  0  0  0  0  0  0
  -12.7443   -8.7720   23.6477 C   0  0  0  0  0  0  0  0  0  0  0  0
  -12.9406   -8.4357   22.1937 C   0  0  0  0  0  0  0  0  0  0  0  0
  -13.0690   -9.7626   21.5713 N   0  0  0  0  0  0  0  0  0  0  0  0
  -12.7560  -12.7019   24.3232 H   0  0  0  0  0  0  0  0  0  0  0  0
  -11.7165  -11.9038   23.1724 H   0  0  0  0  0  0  0  0  0  0  0  0
  -12.1392  -13.6445   22.9954 H   0  0  0  0  0  0  0  0  0  0  0  0
  -15.8555  -12.5984   22.5655 H   0  0  0  0  0  0  0  0  0  0  0  0
  -15.0504  -12.4410   24.1286 H   0  0  0  0  0  0  0  0  0  0  0  0
  -14.8682  -13.9298   23.1901 H   0  0  0  0  0  0  0  0  0  0  0  0
  -14.7201  -13.3233   20.6703 H   0  0  0  0  0  0  0  0  0  0  0  0
  -13.3982  -12.3355   20.1396 H   0  0  0  0  0  0  0  0  0  0  0  0
  -11.8393  -14.2718   20.7838 H   0  0  0  0  0  0  0  0  0  0  0  0
  -12.4930  -17.8808   21.6975 H   0  0  0  0  0  0  0  0  0  0  0  0
   -8.6602  -18.1605   17.6088 H   0  0  0  0  0  0  0  0  0  0  0  0
   -9.0725  -21.0064   18.3540 H   0  0  0  0  0  0  0  0  0  0  0  0
   -9.8626  -20.4897   16.7568 H   0  0  0  0  0  0  0  0  0  0  0  0
   -8.5295  -22.3781   15.5127 H   0  0  0  0  0  0  0  0  0  0  0  0
   -9.9391  -22.8141   16.1749 H   0  0  0  0  0  0  0  0  0  0  0  0
  -10.4723  -22.2315   14.0786 H   0  0  0  0  0  0  0  0  0  0  0  0
  -10.3279  -19.7216   13.4184 H   0  0  0  0  0  0  0  0  0  0  0  0
  -11.5304  -20.1996   13.9281 H   0  0  0  0  0  0  0  0  0  0  0  0
  -11.3256  -18.3310   16.0710 H   0  0  0  0  0  0  0  0  0  0  0  0
  -10.3929  -18.0945   14.9812 H   0  0  0  0  0  0  0  0  0  0  0  0
  -14.9327  -10.4436   22.1376 H   0  0  0  0  0  0  0  0  0  0  0  0
  -14.6669   -9.5783   24.1824 H   0  0  0  0  0  0  0  0  0  0  0  0
  -13.3181  -10.6178   24.6158 H   0  0  0  0  0  0  0  0  0  0  0  0
  -12.9828   -7.9372   24.3127 H   0  0  0  0  0  0  0  0  0  0  0  0
  -11.7128   -9.0866   23.8439 H   0  0  0  0  0  0  0  0  0  0  0  0
  -13.8603   -7.8588   22.0426 H   0  0  0  0  0  0  0  0  0  0  0  0
  -12.1011   -7.8724   21.7777 H   0  0  0  0  0  0  0  0  0  0  0  0
  -13.5024   -9.6675   20.6524 H   0  0  0  0  0  0  0  0  0  0  0  0
  1  2  1  0
  2  3  1  0
  2  4  1  0
  4  5  1  0
  5  6  1  0
  6  7  2  0
  6  8  1  0
  8  9  2  0
  9 10  1  0
 10 11  1  0
 11 12  1  0
 12 13  1  0
 13 14  1  0
 14 15  1  0
 15 16  1  0
 16 17  1  0
 11 18  2  0
  2 19  1  0
 19 20  1  0
 20 21  1  0
 21 22  1  0
 22 23  1  0
 18  8  1  0
 23 19  1  0
 17 12  1  0
  1 24  1  0
  1 25  1  0
  1 26  1  0
  3 27  1  0
  3 28  1  0
  3 29  1  0
  4 30  1  0
  4 31  1  0
  5 32  1  0
  9 33  1  0
 12 34  1  0
 13 35  1  0
 13 36  1  0
 14 37  1  0
 14 38  1  0
 15 39  1  0
 16 40  1  0
 16 41  1  0
 17 42  1  0
 17 43  1  0
 19 44  1  0
 20 45  1  0
 20 46  1  0
 21 47  1  0
 21 48  1  0
 22 49  1  0
 22 50  1  0
 23 51  1  0
M  END
>  <Energy>  (1004) 
403.49986241431355

>  <compound_id>  (1004) 
21717

>  <target_id>  (1004) 
1

>  <reference_id>  (1004) 
44

>  <inspiration_ids>  (1004) 
[44, 30]

>  <energy_score>  (1004) 
281.8930696814798

>  <distance_score>  (1004) 
13.6150775022804

>  <path>  (1004) 
/opt/xchem-fragalysis-2/maxwin/BulkDock/SCRATCH/511015/C21717-P44/C21717-P44.minimised.mol

>  <scratch_subdir>  (1004) 
/opt/xchem-fragalysis-2/maxwin/BulkDock/SCRATCH/511015/C21717-P44

>  <fragmenstein_runtime>  (1004) 
32.18644118309021

>  <fragmenstein_outcome>  (1004) 
too moved

>  <fragmenstein_mode>  (1004) 
expansion

>  <fragmenstein_error>  (1004) 


$$$$
C21717-P30
     RDKit          3D

 51 53  0  0  0  0  0  0  0  0999 V2000
   -2.8567   -8.4780   16.6012 C   0  0  0  0  0  0  0  0  0  0  0  0
   -2.0840   -9.0210   17.7377 C   0  0  0  0  0  0  0  0  0  0  0  0
   -0.7500   -9.3573   16.9711 C   0  0  0  0  0  0  0  0  0  0  0  0
   -2.9588  -10.5598   18.3284 C   0  0  0  0  0  0  0  0  0  0  0  0
   -4.4209  -11.6188   18.4406 N   0  0  0  0  0  0  0  0  0  0  0  0
   -5.9975  -11.4721   17.7408 C   0  0  0  0  0  0  0  0  0  0  0  0
   -6.3072  -10.6078   16.9577 O   0  0  0  0  0  0  0  0  0  0  0  0
   -7.5131  -12.5176   18.1685 C   0  0  0  0  0  0  0  0  0  0  0  0
   -8.5412  -12.8531   17.2233 C   0  0  0  0  0  0  0  0  0  0  0  0
   -9.9533  -13.7592   17.6695 S   0  0  0  0  0  0  0  0  0  0  0  0
   -9.0652  -14.3699   18.9674 C   0  0  0  0  0  0  0  0  0  0  0  0
   -9.0664  -16.1786   19.2265 C   0  0  0  0  0  0  0  0  0  0  0  0
  -10.1749  -17.2133   19.0878 C   0  0  0  0  0  0  0  0  0  0  0  0
   -9.3020  -18.4945   18.7641 C   0  0  0  0  0  0  0  0  0  0  0  0
   -8.9323  -19.2469   19.9528 N   0  0  0  0  0  0  0  0  0  0  0  0
   -8.5226  -18.2980   20.9638 C   0  0  0  0  0  0  0  0  0  0  0  0
   -8.0924  -16.9558   20.3401 C   0  0  0  0  0  0  0  0  0  0  0  0
   -8.0660  -13.4000   19.3081 N   0  0  0  0  0  0  0  0  0  0  0  0
   -1.7291   -7.7100   18.7187 C   0  0  0  0  0  0  0  0  0  0  0  0
   -1.8319   -6.2992   18.0539 C   0  0  0  0  0  0  0  0  0  0  0  0
   -1.3198   -5.3081   19.0930 C   0  0  0  0  0  0  0  0  0  0  0  0
   -0.4137   -6.1494   19.9571 C   0  0  0  0  0  0  0  0  0  0  0  0
   -0.3754   -7.4704   19.2941 N   0  0  0  0  0  0  0  0  0  0  0  0
   -3.6395   -7.8249   16.9454 H   0  0  0  0  0  0  0  0  0  0  0  0
   -3.1889   -9.3810   16.1169 H   0  0  0  0  0  0  0  0  0  0  0  0
   -2.2925   -7.8802   15.8737 H   0  0  0  0  0  0  0  0  0  0  0  0
   -0.8445   -9.3447   15.8777 H   0  0  0  0  0  0  0  0  0  0  0  0
   -0.3658  -10.3429   17.2164 H   0  0  0  0  0  0  0  0  0  0  0  0
    0.0308   -8.6062   17.1235 H   0  0  0  0  0  0  0  0  0  0  0  0
   -3.1462  -10.0894   19.2917 H   0  0  0  0  0  0  0  0  0  0  0  0
   -2.1635  -11.3029   18.4229 H   0  0  0  0  0  0  0  0  0  0  0  0
   -4.4354  -12.3567   19.1202 H   0  0  0  0  0  0  0  0  0  0  0  0
   -8.6855  -12.5652   16.2056 H   0  0  0  0  0  0  0  0  0  0  0  0
   -8.5554  -16.3159   18.2585 H   0  0  0  0  0  0  0  0  0  0  0  0
  -10.9775  -17.0173   18.3868 H   0  0  0  0  0  0  0  0  0  0  0  0
  -10.7269  -17.3439   20.0261 H   0  0  0  0  0  0  0  0  0  0  0  0
   -9.6696  -19.1943   18.0652 H   0  0  0  0  0  0  0  0  0  0  0  0
   -8.3714  -18.2241   18.2446 H   0  0  0  0  0  0  0  0  0  0  0  0
   -8.1447  -19.8476   19.7061 H   0  0  0  0  0  0  0  0  0  0  0  0
   -7.6890  -18.7148   21.5425 H   0  0  0  0  0  0  0  0  0  0  0  0
   -9.3400  -18.1835   21.6776 H   0  0  0  0  0  0  0  0  0  0  0  0
   -7.8947  -16.3414   21.1824 H   0  0  0  0  0  0  0  0  0  0  0  0
   -7.1350  -17.2119   19.8766 H   0  0  0  0  0  0  0  0  0  0  0  0
   -2.4149   -7.7690   19.5495 H   0  0  0  0  0  0  0  0  0  0  0  0
   -1.1842   -6.2524   17.1671 H   0  0  0  0  0  0  0  0  0  0  0  0
   -2.8329   -6.0118   17.7292 H   0  0  0  0  0  0  0  0  0  0  0  0
   -2.1439   -4.8939   19.6830 H   0  0  0  0  0  0  0  0  0  0  0  0
   -0.7896   -4.4792   18.6135 H   0  0  0  0  0  0  0  0  0  0  0  0
   -0.8226   -6.2428   20.9696 H   0  0  0  0  0  0  0  0  0  0  0  0
    0.5935   -5.7292   20.0312 H   0  0  0  0  0  0  0  0  0  0  0  0
   -0.1347   -8.1368   19.9968 H   0  0  0  0  0  0  0  0  0  0  0  0
  1  2  1  0
  2  3  1  0
  2  4  1  0
  4  5  1  0
  5  6  1  0
  6  7  2  0
  6  8  1  0
  8  9  2  0
  9 10  1  0
 10 11  1  0
 11 12  1  0
 12 13  1  0
 13 14  1  0
 14 15  1  0
 15 16  1  0
 16 17  1  0
 11 18  2  0
  2 19  1  0
 19 20  1  0
 20 21  1  0
 21 22  1  0
 22 23  1  0
 18  8  1  0
 23 19  1  0
 17 12  1  0
  1 24  1  0
  1 25  1  0
  1 26  1  0
  3 27  1  0
  3 28  1  0
  3 29  1  0
  4 30  1  0
  4 31  1  0
  5 32  1  0
  9 33  1  0
 12 34  1  0
 13 35  1  0
 13 36  1  0
 14 37  1  0
 14 38  1  0
 15 39  1  0
 16 40  1  0
 16 41  1  0
 17 42  1  0
 17 43  1  0
 19 44  1  0
 20 45  1  0
 20 46  1  0
 21 47  1  0
 21 48  1  0
 22 49  1  0
 22 50  1  0
 23 51  1  0
M  END
>  <Energy>  (1005) 
390.64779209760269

>  <compound_id>  (1005) 
21717

>  <target_id>  (1005) 
1

>  <reference_id>  (1005) 
30

>  <inspiration_ids>  (1005) 
[44, 30]

>  <energy_score>  (1005) 
269.0409993647659

>  <distance_score>  (1005) 
13.16456457994453

>  <path>  (1005) 
/opt/xchem-fragalysis-2/maxwin/BulkDock/SCRATCH/511015/C21717-P30/C21717-P30.minimised.mol

>  <scratch_subdir>  (1005) 
/opt/xchem-fragalysis-2/maxwin/BulkDock/SCRATCH/511015/C21717-P30

>  <fragmenstein_runtime>  (1005) 
22.35122299194336

>  <fragmenstein_outcome>  (1005) 
too moved

>  <fragmenstein_mode>  (1005) 
expansion

>  <fragmenstein_error>  (1005) 


$$$$
C21719-P44
     RDKit          3D

 54 56  0  0  0  0  0  0  0  0999 V2000
  -10.6254   -8.9595   25.3238 C   0  0  0  0  0  0  0  0  0  0  0  0
  -10.4619   -8.3213   23.9671 C   0  0  0  0  0  0  0  0  0  0  0  0
  -11.0645   -8.8508   22.8543 C   0  0  0  0  0  0  0  0  0  0  0  0
  -12.1854   -9.9328   22.8380 C   0  0  0  0  0  0  0  0  0  0  0  0
  -13.0291   -9.8008   23.6889 O   0  0  0  0  0  0  0  0  0  0  0  0
  -12.0747  -10.9068   21.7595 N   0  0  0  0  0  0  0  0  0  0  0  0
  -12.7411  -10.3832   20.5173 C   0  0  0  0  0  0  0  0  0  0  0  0
  -12.1424  -10.9223   19.1719 C   0  0  0  0  0  0  0  0  0  0  0  0
  -12.2403  -12.4350   19.0551 C   0  0  0  0  0  0  0  0  0  0  0  0
  -13.3594  -12.7798   19.9996 C   0  0  0  0  0  0  0  0  0  0  0  0
  -13.8960  -14.2219   19.8519 C   0  0  0  0  0  0  0  0  0  0  0  0
  -13.0327  -15.4073   20.2193 C   0  0  0  0  0  0  0  0  0  0  0  0
  -14.0317  -16.5527   20.2570 C   0  0  0  0  0  0  0  0  0  0  0  0
  -15.3621  -15.8943   20.5964 C   0  0  0  0  0  0  0  0  0  0  0  0
  -15.1020  -14.4518   20.6775 N   0  0  0  0  0  0  0  0  0  0  0  0
  -12.9684  -12.1917   21.4209 C   0  0  0  0  0  0  0  0  0  0  0  0
   -9.6758   -6.9510   23.9634 C   0  0  0  0  0  0  0  0  0  0  0  0
   -8.7042   -6.5403   25.1348 C   0  0  0  0  0  0  0  0  0  0  0  0
   -8.5647   -5.0455   25.4226 C   0  0  0  0  0  0  0  0  0  0  0  0
   -8.3098   -4.6142   26.7374 C   0  0  0  0  0  0  0  0  0  0  0  0
   -8.2300   -3.2532   27.0490 C   0  0  0  0  0  0  0  0  0  0  0  0
   -8.3893   -2.2980   26.0504 C   0  0  0  0  0  0  0  0  0  0  0  0
   -8.5951   -2.7074   24.7394 C   0  0  0  0  0  0  0  0  0  0  0  0
   -8.6616   -4.0683   24.4236 C   0  0  0  0  0  0  0  0  0  0  0  0
  -11.1474   -9.9193   25.2926 H   0  0  0  0  0  0  0  0  0  0  0  0
   -9.6429   -9.1693   25.7596 H   0  0  0  0  0  0  0  0  0  0  0  0
  -11.1785   -8.2942   25.9940 H   0  0  0  0  0  0  0  0  0  0  0  0
  -10.9454   -8.3608   21.8950 H   0  0  0  0  0  0  0  0  0  0  0  0
  -13.8423  -10.3312   20.5775 H   0  0  0  0  0  0  0  0  0  0  0  0
  -12.4939   -9.3110   20.4872 H   0  0  0  0  0  0  0  0  0  0  0  0
  -12.7000  -10.4551   18.3503 H   0  0  0  0  0  0  0  0  0  0  0  0
  -11.1007  -10.6080   19.0528 H   0  0  0  0  0  0  0  0  0  0  0  0
  -12.4473  -12.7330   18.0222 H   0  0  0  0  0  0  0  0  0  0  0  0
  -11.3004  -12.9044   19.3590 H   0  0  0  0  0  0  0  0  0  0  0  0
  -14.2312  -12.1888   19.6692 H   0  0  0  0  0  0  0  0  0  0  0  0
  -14.2005  -14.3351   18.8003 H   0  0  0  0  0  0  0  0  0  0  0  0
  -12.2300  -15.5934   19.5014 H   0  0  0  0  0  0  0  0  0  0  0  0
  -12.6211  -15.2804   21.2240 H   0  0  0  0  0  0  0  0  0  0  0  0
  -13.7432  -17.3098   20.9925 H   0  0  0  0  0  0  0  0  0  0  0  0
  -14.0911  -17.0319   19.2731 H   0  0  0  0  0  0  0  0  0  0  0  0
  -16.1028  -16.0993   19.8159 H   0  0  0  0  0  0  0  0  0  0  0  0
  -15.7662  -16.2663   21.5435 H   0  0  0  0  0  0  0  0  0  0  0  0
  -14.8874  -14.2205   21.6485 H   0  0  0  0  0  0  0  0  0  0  0  0
  -12.4137  -12.9786   21.9488 H   0  0  0  0  0  0  0  0  0  0  0  0
  -13.8869  -12.0685   22.0167 H   0  0  0  0  0  0  0  0  0  0  0  0
  -10.4719   -6.1937   23.9250 H   0  0  0  0  0  0  0  0  0  0  0  0
   -9.1275   -6.8685   23.0166 H   0  0  0  0  0  0  0  0  0  0  0  0
   -7.7072   -6.9458   24.9306 H   0  0  0  0  0  0  0  0  0  0  0  0
   -9.0552   -7.0091   26.0600 H   0  0  0  0  0  0  0  0  0  0  0  0
   -8.2079   -5.3428   27.5391 H   0  0  0  0  0  0  0  0  0  0  0  0
   -8.0706   -2.9415   28.0771 H   0  0  0  0  0  0  0  0  0  0  0  0
   -8.3614   -1.2401   26.2925 H   0  0  0  0  0  0  0  0  0  0  0  0
   -8.7437   -1.9715   23.9548 H   0  0  0  0  0  0  0  0  0  0  0  0
   -8.8300   -4.3497   23.3868 H   0  0  0  0  0  0  0  0  0  0  0  0
  1  2  1  0
  2  3  2  3
  3  4  1  0
  4  5  2  0
  4  6  1  0
  6  7  1  0
  7  8  1  0
  8  9  1  0
  9 10  1  0
 10 11  1  0
 11 12  1  0
 12 13  1  0
 13 14  1  0
 14 15  1  0
 10 16  1  0
  2 17  1  0
 17 18  1  0
 18 19  1  0
 19 20  2  0
 20 21  1  0
 21 22  2  0
 22 23  1  0
 23 24  2  0
 16  6  1  0
 24 19  1  0
 15 11  1  0
  1 25  1  0
  1 26  1  0
  1 27  1  0
  3 28  1  0
  7 29  1  0
  7 30  1  0
  8 31  1  0
  8 32  1  0
  9 33  1  0
  9 34  1  0
 10 35  1  0
 11 36  1  0
 12 37  1  0
 12 38  1  0
 13 39  1  0
 13 40  1  0
 14 41  1  0
 14 42  1  0
 15 43  1  0
 16 44  1  0
 16 45  1  0
 17 46  1  0
 17 47  1  0
 18 48  1  0
 18 49  1  0
 20 50  1  0
 21 51  1  0
 22 52  1  0
 23 53  1  0
 24 54  1  0
M  END
>  <Energy>  (1006) 
133.4701229218299

>  <compound_id>  (1006) 
21719

>  <target_id>  (1006) 
1

>  <reference_id>  (1006) 
44

>  <inspiration_ids>  (1006) 
[44, 30]

>  <energy_score>  (1006) 
63.94110760974013

>  <distance_score>  (1006) 
13.882974183086086

>  <path>  (1006) 
/opt/xchem-fragalysis-2/maxwin/BulkDock/SCRATCH/511015/C21719-P44/C21719-P44.minimised.mol

>  <scratch_subdir>  (1006) 
/opt/xchem-fragalysis-2/maxwin/BulkDock/SCRATCH/511015/C21719-P44

>  <fragmenstein_runtime>  (1006) 
35.241126537323

>  <fragmenstein_outcome>  (1006) 
too moved

>  <fragmenstein_mode>  (1006) 
expansion

>  <fragmenstein_error>  (1006) 


$$$$
C21719-P30
     RDKit          3D

 54 56  0  0  0  0  0  0  0  0999 V2000
   -6.0250  -13.5776   23.6403 C   0  0  0  0  0  0  0  0  0  0  0  0
   -7.1489  -15.0674   24.1636 C   0  0  0  0  0  0  0  0  0  0  0  0
   -7.6637  -16.5028   23.1144 C   0  0  0  0  0  0  0  0  0  0  0  0
   -7.7777  -16.5009   21.1395 C   0  0  0  0  0  0  0  0  0  0  0  0
   -6.9318  -17.2950   20.6741 O   0  0  0  0  0  0  0  0  0  0  0  0
   -8.9295  -15.4278   20.0592 N   0  0  0  0  0  0  0  0  0  0  0  0
  -10.6850  -15.7898   19.3793 C   0  0  0  0  0  0  0  0  0  0  0  0
  -11.5456  -14.5454   18.8826 C   0  0  0  0  0  0  0  0  0  0  0  0
  -10.7379  -13.3428   18.5175 C   0  0  0  0  0  0  0  0  0  0  0  0
   -9.3871  -13.7581   17.9835 C   0  0  0  0  0  0  0  0  0  0  0  0
   -9.0666  -13.2174   16.5502 C   0  0  0  0  0  0  0  0  0  0  0  0
  -10.2238  -12.9140   15.5922 C   0  0  0  0  0  0  0  0  0  0  0  0
   -9.6356  -13.0631   14.1911 C   0  0  0  0  0  0  0  0  0  0  0  0
   -8.1604  -13.3482   14.4076 C   0  0  0  0  0  0  0  0  0  0  0  0
   -8.1097  -13.9675   15.7302 N   0  0  0  0  0  0  0  0  0  0  0  0
   -8.9806  -15.2130   18.3737 C   0  0  0  0  0  0  0  0  0  0  0  0
   -8.0440  -14.7096   25.7904 C   0  0  0  0  0  0  0  0  0  0  0  0
   -7.7380  -13.3862   27.0791 C   0  0  0  0  0  0  0  0  0  0  0  0
   -8.3052  -11.9204   27.4347 C   0  0  0  0  0  0  0  0  0  0  0  0
   -9.4209  -11.2572   26.8921 C   0  0  0  0  0  0  0  0  0  0  0  0
   -9.6765   -9.8811   27.1108 C   0  0  0  0  0  0  0  0  0  0  0  0
   -8.8816   -9.1322   27.9642 C   0  0  0  0  0  0  0  0  0  0  0  0
   -7.8673   -9.7875   28.6367 C   0  0  0  0  0  0  0  0  0  0  0  0
   -7.5898  -11.1525   28.3746 C   0  0  0  0  0  0  0  0  0  0  0  0
   -5.0832  -14.0877   23.5213 H   0  0  0  0  0  0  0  0  0  0  0  0
   -5.8867  -12.7561   24.3848 H   0  0  0  0  0  0  0  0  0  0  0  0
   -6.3814  -12.8799   22.8673 H   0  0  0  0  0  0  0  0  0  0  0  0
   -7.0616  -17.4464   23.2069 H   0  0  0  0  0  0  0  0  0  0  0  0
  -11.0074  -16.4430   18.5483 H   0  0  0  0  0  0  0  0  0  0  0  0
  -11.3207  -16.1855   20.1712 H   0  0  0  0  0  0  0  0  0  0  0  0
  -12.2960  -14.2766   19.6384 H   0  0  0  0  0  0  0  0  0  0  0  0
  -12.1350  -14.8578   18.0087 H   0  0  0  0  0  0  0  0  0  0  0  0
  -11.3057  -12.6868   17.8528 H   0  0  0  0  0  0  0  0  0  0  0  0
  -10.5871  -12.7355   19.4199 H   0  0  0  0  0  0  0  0  0  0  0  0
   -8.6844  -13.1629   18.5908 H   0  0  0  0  0  0  0  0  0  0  0  0
   -8.5939  -12.2371   16.7300 H   0  0  0  0  0  0  0  0  0  0  0  0
  -11.0940  -13.5635   15.7199 H   0  0  0  0  0  0  0  0  0  0  0  0
  -10.5751  -11.8849   15.7368 H   0  0  0  0  0  0  0  0  0  0  0  0
   -9.7894  -12.1627   13.5877 H   0  0  0  0  0  0  0  0  0  0  0  0
  -10.1183  -13.8977   13.6695 H   0  0  0  0  0  0  0  0  0  0  0  0
   -7.5845  -12.4152   14.4033 H   0  0  0  0  0  0  0  0  0  0  0  0
   -7.7526  -14.0086   13.6371 H   0  0  0  0  0  0  0  0  0  0  0  0
   -7.1669  -13.8961   16.1148 H   0  0  0  0  0  0  0  0  0  0  0  0
   -9.0139  -16.1401   17.8416 H   0  0  0  0  0  0  0  0  0  0  0  0
   -8.0703  -15.1454   17.8284 H   0  0  0  0  0  0  0  0  0  0  0  0
   -9.1226  -14.7143   25.6249 H   0  0  0  0  0  0  0  0  0  0  0  0
   -8.1485  -15.6578   26.3194 H   0  0  0  0  0  0  0  0  0  0  0  0
   -6.7295  -13.1170   26.8139 H   0  0  0  0  0  0  0  0  0  0  0  0
   -7.8071  -13.9206   28.0348 H   0  0  0  0  0  0  0  0  0  0  0  0
  -10.1298  -11.7801   26.2533 H   0  0  0  0  0  0  0  0  0  0  0  0
  -10.5255   -9.4152   26.6156 H   0  0  0  0  0  0  0  0  0  0  0  0
   -9.0847   -8.0821   28.1409 H   0  0  0  0  0  0  0  0  0  0  0  0
   -7.2639   -9.2452   29.3563 H   0  0  0  0  0  0  0  0  0  0  0  0
   -6.7624  -11.6173   28.9060 H   0  0  0  0  0  0  0  0  0  0  0  0
  1  2  1  0
  2  3  2  3
  3  4  1  0
  4  5  2  0
  4  6  1  0
  6  7  1  0
  7  8  1  0
  8  9  1  0
  9 10  1  0
 10 11  1  0
 11 12  1  0
 12 13  1  0
 13 14  1  0
 14 15  1  0
 10 16  1  0
  2 17  1  0
 17 18  1  0
 18 19  1  0
 19 20  2  0
 20 21  1  0
 21 22  2  0
 22 23  1  0
 23 24  2  0
 16  6  1  0
 24 19  1  0
 15 11  1  0
  1 25  1  0
  1 26  1  0
  1 27  1  0
  3 28  1  0
  7 29  1  0
  7 30  1  0
  8 31  1  0
  8 32  1  0
  9 33  1  0
  9 34  1  0
 10 35  1  0
 11 36  1  0
 12 37  1  0
 12 38  1  0
 13 39  1  0
 13 40  1  0
 14 41  1  0
 14 42  1  0
 15 43  1  0
 16 44  1  0
 16 45  1  0
 17 46  1  0
 17 47  1  0
 18 48  1  0
 18 49  1  0
 20 50  1  0
 21 51  1  0
 22 52  1  0
 23 53  1  0
 24 54  1  0
M  END
>  <Energy>  (1007) 
677.34296412375045

>  <compound_id>  (1007) 
21719

>  <target_id>  (1007) 
1

>  <reference_id>  (1007) 
30

>  <inspiration_ids>  (1007) 
[44, 30]

>  <energy_score>  (1007) 
607.8139488116477

>  <distance_score>  (1007) 
13.622932321383297

>  <path>  (1007) 
/opt/xchem-fragalysis-2/maxwin/BulkDock/SCRATCH/511015/C21719-P30/C21719-P30.minimised.mol

>  <scratch_subdir>  (1007) 
/opt/xchem-fragalysis-2/maxwin/BulkDock/SCRATCH/511015/C21719-P30

>  <fragmenstein_runtime>  (1007) 
31.78340244293213

>  <fragmenstein_outcome>  (1007) 
too moved

>  <fragmenstein_mode>  (1007) 
expansion

>  <fragmenstein_error>  (1007) 


$$$$
C21721-P44
     RDKit          3D

 55 56  0  0  0  0  0  0  0  0999 V2000
  -12.7655  -17.6188   18.2190 C   0  0  0  0  0  0  0  0  0  0  0  0
  -10.9853  -16.9046   18.0439 C   0  0  0  0  0  0  0  0  0  0  0  0
  -11.4128  -17.9391   16.2713 C   0  0  0  0  0  0  0  0  0  0  0  0
  -10.9826  -18.4009   14.4240 N   0  0  0  0  0  0  0  0  0  0  0  0
   -9.9258  -17.6962   13.1351 C   0  0  0  0  0  0  0  0  0  0  0  0
   -9.2214  -19.2133   12.0799 C   0  0  0  0  0  0  0  0  0  0  0  0
   -9.4409  -21.0169   12.2834 C   0  0  0  0  0  0  0  0  0  0  0  0
  -10.3241  -21.3177   13.5366 C   0  0  0  0  0  0  0  0  0  0  0  0
  -11.0523  -19.9640   13.9517 C   0  0  0  0  0  0  0  0  0  0  0  0
  -10.7257  -15.0389   19.2919 N   0  0  0  0  0  0  0  0  0  0  0  0
  -12.5188  -15.7927   19.4653 C   0  0  0  0  0  0  0  0  0  0  0  0
  -10.1001  -13.0779   18.8276 C   0  0  0  0  0  0  0  0  0  0  0  0
  -11.0413  -12.4423   18.5399 O   0  0  0  0  0  0  0  0  0  0  0  0
   -8.4723  -11.6921   18.9293 C   0  0  0  0  0  0  0  0  0  0  0  0
   -7.3348  -12.1634   19.0057 O   0  0  0  0  0  0  0  0  0  0  0  0
   -8.7960   -9.6591   18.7280 N   0  0  0  0  0  0  0  0  0  0  0  0
   -7.8708   -8.5844   18.5422 C   0  0  0  0  0  0  0  0  0  0  0  0
   -9.0557   -8.2373   19.9628 C   0  0  0  0  0  0  0  0  0  0  0  0
   -8.4164   -6.3907   20.1431 C   0  0  0  0  0  0  0  0  0  0  0  0
   -7.7555   -5.3825   19.1098 C   0  0  0  0  0  0  0  0  0  0  0  0
   -7.1064   -4.2729   19.9703 C   0  0  0  0  0  0  0  0  0  0  0  0
   -7.6057   -4.4986   21.3833 C   0  0  0  0  0  0  0  0  0  0  0  0
   -7.8171   -5.9315   21.4157 N   0  0  0  0  0  0  0  0  0  0  0  0
  -12.8897  -18.2025   19.1484 H   0  0  0  0  0  0  0  0  0  0  0  0
  -13.0084  -18.4081   17.5430 H   0  0  0  0  0  0  0  0  0  0  0  0
  -13.6004  -16.9427   18.0343 H   0  0  0  0  0  0  0  0  0  0  0  0
  -11.1144  -17.6605   18.7877 H   0  0  0  0  0  0  0  0  0  0  0  0
  -10.5000  -18.5745   16.2782 H   0  0  0  0  0  0  0  0  0  0  0  0
  -12.4584  -17.7420   16.0048 H   0  0  0  0  0  0  0  0  0  0  0  0
   -9.0383  -17.1583   13.5320 H   0  0  0  0  0  0  0  0  0  0  0  0
  -10.4043  -16.8366   12.6346 H   0  0  0  0  0  0  0  0  0  0  0  0
   -9.6127  -19.0862   11.1173 H   0  0  0  0  0  0  0  0  0  0  0  0
   -8.1240  -19.1907   11.9681 H   0  0  0  0  0  0  0  0  0  0  0  0
   -9.8118  -21.5701   11.4278 H   0  0  0  0  0  0  0  0  0  0  0  0
   -8.4324  -21.4507   12.4123 H   0  0  0  0  0  0  0  0  0  0  0  0
  -11.0376  -22.0881   13.2214 H   0  0  0  0  0  0  0  0  0  0  0  0
   -9.7623  -21.7702   14.3634 H   0  0  0  0  0  0  0  0  0  0  0  0
  -12.0883  -20.1191   13.6805 H   0  0  0  0  0  0  0  0  0  0  0  0
  -10.7373  -19.6167   13.0719 H   0  0  0  0  0  0  0  0  0  0  0  0
  -12.9361  -16.6813   19.9571 H   0  0  0  0  0  0  0  0  0  0  0  0
  -13.3923  -15.3390   18.9539 H   0  0  0  0  0  0  0  0  0  0  0  0
  -12.7239  -15.3037   20.4349 H   0  0  0  0  0  0  0  0  0  0  0  0
   -7.4223   -8.6609   19.4826 H   0  0  0  0  0  0  0  0  0  0  0  0
   -7.3791   -8.6868   17.5344 H   0  0  0  0  0  0  0  0  0  0  0  0
   -7.9928   -7.5434   18.3479 H   0  0  0  0  0  0  0  0  0  0  0  0
   -9.4211   -7.5299   19.1510 H   0  0  0  0  0  0  0  0  0  0  0  0
  -10.1511   -8.0223   19.9011 H   0  0  0  0  0  0  0  0  0  0  0  0
   -9.3871   -5.8763   20.0769 H   0  0  0  0  0  0  0  0  0  0  0  0
   -6.9966   -5.7822   18.4310 H   0  0  0  0  0  0  0  0  0  0  0  0
   -8.5330   -4.9394   18.4730 H   0  0  0  0  0  0  0  0  0  0  0  0
   -7.3560   -3.2744   19.5984 H   0  0  0  0  0  0  0  0  0  0  0  0
   -6.0155   -4.3817   19.9335 H   0  0  0  0  0  0  0  0  0  0  0  0
   -8.5459   -3.9645   21.5565 H   0  0  0  0  0  0  0  0  0  0  0  0
   -6.8752   -4.1758   22.1299 H   0  0  0  0  0  0  0  0  0  0  0  0
   -8.2067   -6.3251   22.2683 H   0  0  0  0  0  0  0  0  0  0  0  0
  1  2  1  0
  2  3  1  0
  3  4  1  0
  4  5  1  0
  5  6  1  0
  6  7  1  0
  7  8  1  0
  8  9  1  0
  2 10  1  0
 10 11  1  0
 10 12  1  0
 12 13  2  0
 12 14  1  0
 14 15  2  0
 14 16  1  0
 16 17  1  0
 16 18  1  0
 18 19  1  0
 19 20  1  0
 20 21  1  0
 21 22  1  0
 22 23  1  0
  9  4  1  0
 23 19  1  0
  1 24  1  0
  1 25  1  0
  1 26  1  0
  2 27  1  0
  3 28  1  0
  3 29  1  0
  5 30  1  0
  5 31  1  0
  6 32  1  0
  6 33  1  0
  7 34  1  0
  7 35  1  0
  8 36  1  0
  8 37  1  0
  9 38  1  0
  9 39  1  0
 11 40  1  0
 11 41  1  0
 11 42  1  0
 17 43  1  0
 17 44  1  0
 17 45  1  0
 18 46  1  0
 18 47  1  0
 19 48  1  0
 20 49  1  0
 20 50  1  0
 21 51  1  0
 21 52  1  0
 22 53  1  0
 22 54  1  0
 23 55  1  0
M  END
>  <Energy>  (1008) 
1950.9656391404831

>  <compound_id>  (1008) 
21721

>  <target_id>  (1008) 
1

>  <reference_id>  (1008) 
44

>  <inspiration_ids>  (1008) 
[44, 30]

>  <energy_score>  (1008) 
1796.2196678826767

>  <distance_score>  (1008) 
11.143658871190956

>  <path>  (1008) 
/opt/xchem-fragalysis-2/maxwin/BulkDock/SCRATCH/511015/C21721-P44/C21721-P44.minimised.mol

>  <scratch_subdir>  (1008) 
/opt/xchem-fragalysis-2/maxwin/BulkDock/SCRATCH/511015/C21721-P44

>  <fragmenstein_runtime>  (1008) 
16.328348875045776

>  <fragmenstein_outcome>  (1008) 
too moved

>  <fragmenstein_mode>  (1008) 
expansion

>  <fragmenstein_error>  (1008) 


$$$$
C21721-P30
     RDKit          3D

 55 56  0  0  0  0  0  0  0  0999 V2000
  -12.6748  -14.0811   14.0755 C   0  0  0  0  0  0  0  0  0  0  0  0
  -11.1649  -13.5227   14.2729 C   0  0  0  0  0  0  0  0  0  0  0  0
  -10.2187  -15.1736   13.6532 C   0  0  0  0  0  0  0  0  0  0  0  0
  -10.2665  -17.0096   13.4500 N   0  0  0  0  0  0  0  0  0  0  0  0
   -9.1882  -17.7173   12.6729 C   0  0  0  0  0  0  0  0  0  0  0  0
   -8.7687  -19.5187   11.9268 C   0  0  0  0  0  0  0  0  0  0  0  0
   -9.6055  -20.9547   12.5617 C   0  0  0  0  0  0  0  0  0  0  0  0
  -10.6323  -20.2384   13.7300 C   0  0  0  0  0  0  0  0  0  0  0  0
  -10.8874  -18.4114   14.2260 C   0  0  0  0  0  0  0  0  0  0  0  0
  -10.9848  -11.8797   15.3097 N   0  0  0  0  0  0  0  0  0  0  0  0
  -11.9349  -11.6923   14.1945 C   0  0  0  0  0  0  0  0  0  0  0  0
  -11.1948  -11.5737   17.1572 C   0  0  0  0  0  0  0  0  0  0  0  0
  -12.2799  -11.2624   17.5804 O   0  0  0  0  0  0  0  0  0  0  0  0
   -9.8540  -11.4612   18.6355 C   0  0  0  0  0  0  0  0  0  0  0  0
   -9.6137  -12.4669   19.2988 O   0  0  0  0  0  0  0  0  0  0  0  0
   -9.0305   -9.7075   18.6843 N   0  0  0  0  0  0  0  0  0  0  0  0
   -8.0440   -9.3057   19.3240 C   0  0  0  0  0  0  0  0  0  0  0  0
   -9.4635   -8.0926   19.6851 C   0  0  0  0  0  0  0  0  0  0  0  0
   -8.6098   -6.4044   19.5437 C   0  0  0  0  0  0  0  0  0  0  0  0
   -9.4829   -5.2038   19.0250 C   0  0  0  0  0  0  0  0  0  0  0  0
   -8.7142   -3.9327   19.4446 C   0  0  0  0  0  0  0  0  0  0  0  0
   -7.7106   -4.3930   20.4823 C   0  0  0  0  0  0  0  0  0  0  0  0
   -8.2023   -5.7211   20.8037 N   0  0  0  0  0  0  0  0  0  0  0  0
  -13.0244  -13.8541   13.0636 H   0  0  0  0  0  0  0  0  0  0  0  0
  -12.6924  -15.1561   14.2191 H   0  0  0  0  0  0  0  0  0  0  0  0
  -13.3963  -13.7066   14.8029 H   0  0  0  0  0  0  0  0  0  0  0  0
  -10.7476  -13.1165   13.3308 H   0  0  0  0  0  0  0  0  0  0  0  0
   -9.1542  -14.9518   13.8243 H   0  0  0  0  0  0  0  0  0  0  0  0
  -10.3663  -14.9998   12.5751 H   0  0  0  0  0  0  0  0  0  0  0  0
   -9.5803  -17.0857   11.8391 H   0  0  0  0  0  0  0  0  0  0  0  0
   -9.7468  -18.5619   12.8357 H   0  0  0  0  0  0  0  0  0  0  0  0
   -8.9039  -19.6694   10.8639 H   0  0  0  0  0  0  0  0  0  0  0  0
   -7.6798  -19.6895   12.0142 H   0  0  0  0  0  0  0  0  0  0  0  0
  -10.0311  -21.7467   11.9257 H   0  0  0  0  0  0  0  0  0  0  0  0
   -8.8649  -21.6749   12.9965 H   0  0  0  0  0  0  0  0  0  0  0  0
  -10.2575  -20.7421   14.6271 H   0  0  0  0  0  0  0  0  0  0  0  0
  -11.6062  -20.6190   13.5109 H   0  0  0  0  0  0  0  0  0  0  0  0
  -10.5207  -18.4851   15.2647 H   0  0  0  0  0  0  0  0  0  0  0  0
  -11.8962  -18.1905   14.3203 H   0  0  0  0  0  0  0  0  0  0  0  0
  -11.6317  -11.6616   13.1361 H   0  0  0  0  0  0  0  0  0  0  0  0
  -12.9819  -11.8751   14.4515 H   0  0  0  0  0  0  0  0  0  0  0  0
  -12.0341  -10.5924   14.2579 H   0  0  0  0  0  0  0  0  0  0  0  0
   -7.6149  -10.3069   19.3283 H   0  0  0  0  0  0  0  0  0  0  0  0
   -7.7156   -8.4678   19.8453 H   0  0  0  0  0  0  0  0  0  0  0  0
   -7.8297   -8.6591   18.4103 H   0  0  0  0  0  0  0  0  0  0  0  0
   -9.7895   -7.4578   18.8096 H   0  0  0  0  0  0  0  0  0  0  0  0
  -10.5557   -7.9442   19.7656 H   0  0  0  0  0  0  0  0  0  0  0  0
   -7.8723   -6.4362   18.7351 H   0  0  0  0  0  0  0  0  0  0  0  0
   -9.6083   -5.2317   17.9374 H   0  0  0  0  0  0  0  0  0  0  0  0
  -10.4904   -5.1933   19.4566 H   0  0  0  0  0  0  0  0  0  0  0  0
   -9.4110   -3.1919   19.8515 H   0  0  0  0  0  0  0  0  0  0  0  0
   -8.2054   -3.4843   18.5845 H   0  0  0  0  0  0  0  0  0  0  0  0
   -6.6999   -4.4385   20.0634 H   0  0  0  0  0  0  0  0  0  0  0  0
   -7.6998   -3.7417   21.3599 H   0  0  0  0  0  0  0  0  0  0  0  0
   -7.5872   -6.2523   21.4130 H   0  0  0  0  0  0  0  0  0  0  0  0
  1  2  1  0
  2  3  1  0
  3  4  1  0
  4  5  1  0
  5  6  1  0
  6  7  1  0
  7  8  1  0
  8  9  1  0
  2 10  1  0
 10 11  1  0
 10 12  1  0
 12 13  2  0
 12 14  1  0
 14 15  2  0
 14 16  1  0
 16 17  1  0
 16 18  1  0
 18 19  1  0
 19 20  1  0
 20 21  1  0
 21 22  1  0
 22 23  1  0
  9  4  1  0
 23 19  1  0
  1 24  1  0
  1 25  1  0
  1 26  1  0
  2 27  1  0
  3 28  1  0
  3 29  1  0
  5 30  1  0
  5 31  1  0
  6 32  1  0
  6 33  1  0
  7 34  1  0
  7 35  1  0
  8 36  1  0
  8 37  1  0
  9 38  1  0
  9 39  1  0
 11 40  1  0
 11 41  1  0
 11 42  1  0
 17 43  1  0
 17 44  1  0
 17 45  1  0
 18 46  1  0
 18 47  1  0
 19 48  1  0
 20 49  1  0
 20 50  1  0
 21 51  1  0
 21 52  1  0
 22 53  1  0
 22 54  1  0
 23 55  1  0
M  END
>  <Energy>  (1009) 
1277.440203575884

>  <compound_id>  (1009) 
21721

>  <target_id>  (1009) 
1

>  <reference_id>  (1009) 
30

>  <inspiration_ids>  (1009) 
[44, 30]

>  <energy_score>  (1009) 
1122.694232318067

>  <distance_score>  (1009) 
11.986503090517594

>  <path>  (1009) 
/opt/xchem-fragalysis-2/maxwin/BulkDock/SCRATCH/511015/C21721-P30/C21721-P30.minimised.mol

>  <scratch_subdir>  (1009) 
/opt/xchem-fragalysis-2/maxwin/BulkDock/SCRATCH/511015/C21721-P30

>  <fragmenstein_runtime>  (1009) 
18.789724826812744

>  <fragmenstein_outcome>  (1009) 
too moved

>  <fragmenstein_mode>  (1009) 
expansion

>  <fragmenstein_error>  (1009) 


$$$$
C21728-P44
     RDKit          3D

 46 48  0  0  0  0  0  0  0  0999 V2000
   -9.6915  -14.9503   19.7481 C   0  0  0  0  0  0  0  0  0  0  0  0
   -8.5437  -15.5577   19.1169 N   0  0  0  0  0  0  0  0  0  0  0  0
   -8.0699  -14.8156   17.9109 C   0  0  0  0  0  0  0  0  0  0  0  0
   -7.7093  -13.3459   18.1952 C   0  0  0  0  0  0  0  0  0  0  0  0
   -6.9982  -12.5314   17.1374 C   0  0  0  0  0  0  0  0  0  0  0  0
   -8.3960  -12.1671   17.5350 C   0  0  0  0  0  0  0  0  0  0  0  0
   -7.8971  -16.8241   19.6386 C   0  0  0  0  0  0  0  0  0  0  0  0
   -7.0185  -16.8978   20.4286 O   0  0  0  0  0  0  0  0  0  0  0  0
   -8.5196  -17.8058   18.9040 N   0  0  0  0  0  0  0  0  0  0  0  0
   -9.6934  -18.3230   19.6471 C   0  0  0  0  0  0  0  0  0  0  0  0
  -10.6681  -17.8992   18.6690 C   0  0  0  0  0  0  0  0  0  0  0  0
   -9.8388  -18.5372   17.2937 C   0  0  0  0  0  0  0  0  0  0  0  0
   -9.2132  -20.2987   17.4209 C   0  0  0  0  0  0  0  0  0  0  0  0
   -9.6765  -21.6965   15.9453 C   0  0  0  0  0  0  0  0  0  0  0  0
   -9.8879  -23.3431   15.4261 C   0  0  0  0  0  0  0  0  0  0  0  0
  -10.2244  -23.6117   13.9552 C   0  0  0  0  0  0  0  0  0  0  0  0
  -10.4154  -22.2655   13.4269 C   0  0  0  0  0  0  0  0  0  0  0  0
   -9.8260  -21.4256   14.4500 N   0  0  0  0  0  0  0  0  0  0  0  0
   -8.2113  -19.3709   18.7551 C   0  0  0  0  0  0  0  0  0  0  0  0
  -10.1663  -15.6432   20.4363 H   0  0  0  0  0  0  0  0  0  0  0  0
  -10.4322  -14.7090   18.9772 H   0  0  0  0  0  0  0  0  0  0  0  0
   -9.4244  -14.0097   20.2201 H   0  0  0  0  0  0  0  0  0  0  0  0
   -7.2367  -15.3583   17.4516 H   0  0  0  0  0  0  0  0  0  0  0  0
   -8.8825  -14.8138   17.1877 H   0  0  0  0  0  0  0  0  0  0  0  0
   -7.4027  -13.1863   19.2138 H   0  0  0  0  0  0  0  0  0  0  0  0
   -6.8526  -12.9741   16.1581 H   0  0  0  0  0  0  0  0  0  0  0  0
   -6.1804  -11.8961   17.4464 H   0  0  0  0  0  0  0  0  0  0  0  0
   -8.5400  -11.2679   18.1213 H   0  0  0  0  0  0  0  0  0  0  0  0
   -9.1988  -12.3668   16.8354 H   0  0  0  0  0  0  0  0  0  0  0  0
   -9.8213  -17.7631   20.5834 H   0  0  0  0  0  0  0  0  0  0  0  0
   -9.9283  -19.3548   19.9519 H   0  0  0  0  0  0  0  0  0  0  0  0
  -10.8220  -16.8297   18.5919 H   0  0  0  0  0  0  0  0  0  0  0  0
  -11.6540  -18.2742   18.9923 H   0  0  0  0  0  0  0  0  0  0  0  0
  -10.3636  -18.4800   16.3255 H   0  0  0  0  0  0  0  0  0  0  0  0
   -9.0390  -17.7962   17.0964 H   0  0  0  0  0  0  0  0  0  0  0  0
   -9.2767  -20.9736   18.2545 H   0  0  0  0  0  0  0  0  0  0  0  0
   -8.6816  -22.1090   15.8552 H   0  0  0  0  0  0  0  0  0  0  0  0
   -8.9980  -23.8720   15.6282 H   0  0  0  0  0  0  0  0  0  0  0  0
  -10.6551  -23.9710   15.8186 H   0  0  0  0  0  0  0  0  0  0  0  0
  -11.1404  -24.2075   13.8490 H   0  0  0  0  0  0  0  0  0  0  0  0
   -9.4531  -24.1656   13.4198 H   0  0  0  0  0  0  0  0  0  0  0  0
  -11.4395  -22.0661   13.1524 H   0  0  0  0  0  0  0  0  0  0  0  0
   -9.8644  -22.1418   12.4874 H   0  0  0  0  0  0  0  0  0  0  0  0
   -8.8518  -21.6826   14.1969 H   0  0  0  0  0  0  0  0  0  0  0  0
   -7.1595  -19.3669   18.4979 H   0  0  0  0  0  0  0  0  0  0  0  0
   -8.2659  -19.7185   19.7942 H   0  0  0  0  0  0  0  0  0  0  0  0
  1  2  1  0
  2  3  1  0
  3  4  1  0
  4  5  1  0
  5  6  1  0
  2  7  1  0
  7  8  2  0
  7  9  1  0
  9 10  1  0
 10 11  1  0
 11 12  1  0
 12 13  1  0
 13 14  1  0
 14 15  1  0
 15 16  1  0
 16 17  1  0
 17 18  1  0
 13 19  1  0
  6  4  1  0
 19  9  1  0
 18 14  1  0
  1 20  1  0
  1 21  1  0
  1 22  1  0
  3 23  1  0
  3 24  1  0
  4 25  1  0
  5 26  1  0
  5 27  1  0
  6 28  1  0
  6 29  1  0
 10 30  1  0
 10 31  1  0
 11 32  1  0
 11 33  1  0
 12 34  1  0
 12 35  1  0
 13 36  1  0
 14 37  1  0
 15 38  1  0
 15 39  1  0
 16 40  1  0
 16 41  1  0
 17 42  1  0
 17 43  1  0
 18 44  1  0
 19 45  1  0
 19 46  1  0
M  END
>  <Energy>  (1010) 
474.60397688049591

>  <compound_id>  (1010) 
21728

>  <target_id>  (1010) 
1

>  <reference_id>  (1010) 
44

>  <inspiration_ids>  (1010) 
[44, 30]

>  <energy_score>  (1010) 
464.28074236643977

>  <distance_score>  (1010) 
13.03626097196205

>  <path>  (1010) 
/opt/xchem-fragalysis-2/maxwin/BulkDock/SCRATCH/511015/C21728-P44/C21728-P44.minimised.mol

>  <scratch_subdir>  (1010) 
/opt/xchem-fragalysis-2/maxwin/BulkDock/SCRATCH/511015/C21728-P44

>  <fragmenstein_runtime>  (1010) 
18.236424922943115

>  <fragmenstein_outcome>  (1010) 
too moved

>  <fragmenstein_mode>  (1010) 
expansion

>  <fragmenstein_error>  (1010) 


$$$$
C21728-P30
     RDKit          3D

 46 48  0  0  0  0  0  0  0  0999 V2000
   -8.3192  -14.7003   18.7654 C   0  0  0  0  0  0  0  0  0  0  0  0
   -7.4572  -15.7913   17.5826 N   0  0  0  0  0  0  0  0  0  0  0  0
   -8.2074  -14.4967   17.8912 C   0  0  0  0  0  0  0  0  0  0  0  0
   -7.3104  -12.9429   17.7285 C   0  0  0  0  0  0  0  0  0  0  0  0
   -7.2996  -12.0829   16.4823 C   0  0  0  0  0  0  0  0  0  0  0  0
   -8.2211  -11.7300   17.6039 C   0  0  0  0  0  0  0  0  0  0  0  0
   -6.9550  -17.0150   18.3851 C   0  0  0  0  0  0  0  0  0  0  0  0
   -5.8976  -17.0923   18.8983 O   0  0  0  0  0  0  0  0  0  0  0  0
   -7.9224  -17.9240   18.2614 N   0  0  0  0  0  0  0  0  0  0  0  0
   -8.8743  -17.8318   19.4277 C   0  0  0  0  0  0  0  0  0  0  0  0
  -10.1947  -18.1623   18.8497 C   0  0  0  0  0  0  0  0  0  0  0  0
   -9.7435  -18.6581   17.4224 C   0  0  0  0  0  0  0  0  0  0  0  0
   -9.0444  -20.3127   17.4995 C   0  0  0  0  0  0  0  0  0  0  0  0
   -9.5599  -21.5030   15.9269 C   0  0  0  0  0  0  0  0  0  0  0  0
   -8.7994  -22.7044   15.1308 C   0  0  0  0  0  0  0  0  0  0  0  0
   -8.9952  -22.7570   13.6262 C   0  0  0  0  0  0  0  0  0  0  0  0
  -10.2920  -22.1339   13.5481 C   0  0  0  0  0  0  0  0  0  0  0  0
  -10.1184  -21.1572   14.5896 N   0  0  0  0  0  0  0  0  0  0  0  0
   -7.9667  -19.4032   18.6269 C   0  0  0  0  0  0  0  0  0  0  0  0
   -8.0273  -15.3712   19.6599 H   0  0  0  0  0  0  0  0  0  0  0  0
   -9.4577  -15.0527   19.0094 H   0  0  0  0  0  0  0  0  0  0  0  0
   -7.8644  -13.9008   19.5405 H   0  0  0  0  0  0  0  0  0  0  0  0
   -9.3256  -14.3226   17.3548 H   0  0  0  0  0  0  0  0  0  0  0  0
   -8.0442  -14.4281   16.7425 H   0  0  0  0  0  0  0  0  0  0  0  0
   -6.4412  -12.8710   18.3657 H   0  0  0  0  0  0  0  0  0  0  0  0
   -6.4309  -11.4548   16.3172 H   0  0  0  0  0  0  0  0  0  0  0  0
   -7.7253  -12.4890   15.5721 H   0  0  0  0  0  0  0  0  0  0  0  0
   -8.0225  -10.8579   18.1983 H   0  0  0  0  0  0  0  0  0  0  0  0
   -9.2827  -11.8921   17.4488 H   0  0  0  0  0  0  0  0  0  0  0  0
   -9.0088  -16.8115   19.7349 H   0  0  0  0  0  0  0  0  0  0  0  0
   -8.5599  -18.1939   20.4252 H   0  0  0  0  0  0  0  0  0  0  0  0
  -10.7061  -18.8956   19.4806 H   0  0  0  0  0  0  0  0  0  0  0  0
  -10.8447  -17.2828   18.7781 H   0  0  0  0  0  0  0  0  0  0  0  0
  -10.3103  -18.5649   16.4699 H   0  0  0  0  0  0  0  0  0  0  0  0
   -9.1573  -17.8533   16.9919 H   0  0  0  0  0  0  0  0  0  0  0  0
   -9.1343  -21.0115   18.3037 H   0  0  0  0  0  0  0  0  0  0  0  0
   -9.9225  -22.3025   16.4680 H   0  0  0  0  0  0  0  0  0  0  0  0
   -9.1930  -23.6754   15.4513 H   0  0  0  0  0  0  0  0  0  0  0  0
   -7.7617  -22.6693   15.2967 H   0  0  0  0  0  0  0  0  0  0  0  0
   -9.0650  -23.7627   13.1945 H   0  0  0  0  0  0  0  0  0  0  0  0
   -8.2085  -22.2054   13.0973 H   0  0  0  0  0  0  0  0  0  0  0  0
  -10.3664  -21.7287   12.5603 H   0  0  0  0  0  0  0  0  0  0  0  0
  -11.0854  -22.8731   13.6813 H   0  0  0  0  0  0  0  0  0  0  0  0
  -10.5065  -20.2430   14.4131 H   0  0  0  0  0  0  0  0  0  0  0  0
   -6.9227  -19.7008   18.6099 H   0  0  0  0  0  0  0  0  0  0  0  0
   -8.3537  -19.6874   19.6214 H   0  0  0  0  0  0  0  0  0  0  0  0
  1  2  1  0
  2  3  1  0
  3  4  1  0
  4  5  1  0
  5  6  1  0
  2  7  1  0
  7  8  2  0
  7  9  1  0
  9 10  1  0
 10 11  1  0
 11 12  1  0
 12 13  1  0
 13 14  1  0
 14 15  1  0
 15 16  1  0
 16 17  1  0
 17 18  1  0
 13 19  1  0
  6  4  1  0
 19  9  1  0
 18 14  1  0
  1 20  1  0
  1 21  1  0
  1 22  1  0
  3 23  1  0
  3 24  1  0
  4 25  1  0
  5 26  1  0
  5 27  1  0
  6 28  1  0
  6 29  1  0
 10 30  1  0
 10 31  1  0
 11 32  1  0
 11 33  1  0
 12 34  1  0
 12 35  1  0
 13 36  1  0
 14 37  1  0
 15 38  1  0
 15 39  1  0
 16 40  1  0
 16 41  1  0
 17 42  1  0
 17 43  1  0
 18 44  1  0
 19 45  1  0
 19 46  1  0
M  END
>  <Energy>  (1011) 
928.09867657567702

>  <compound_id>  (1011) 
21728

>  <target_id>  (1011) 
1

>  <reference_id>  (1011) 
30

>  <inspiration_ids>  (1011) 
[44, 30]

>  <energy_score>  (1011) 
917.7754420616118

>  <distance_score>  (1011) 
12.786315427510917

>  <path>  (1011) 
/opt/xchem-fragalysis-2/maxwin/BulkDock/SCRATCH/511015/C21728-P30/C21728-P30.minimised.mol

>  <scratch_subdir>  (1011) 
/opt/xchem-fragalysis-2/maxwin/BulkDock/SCRATCH/511015/C21728-P30

>  <fragmenstein_runtime>  (1011) 
18.59337091445923

>  <fragmenstein_outcome>  (1011) 
too moved

>  <fragmenstein_mode>  (1011) 
expansion

>  <fragmenstein_error>  (1011) 


$$$$
C33512-P44
     RDKit          3D

 51 52  0  0  0  0  0  0  0  0999 V2000
   -2.7909    9.1422   23.1710 C   0  0  0  0  0  0  0  0  0  0  0  0
   -2.7072    7.8454   23.9625 C   0  0  0  0  0  0  0  0  0  0  0  0
   -1.9817    6.7071   23.2278 C   0  0  0  0  0  0  0  0  0  0  0  0
   -1.7154    5.6030   24.1551 N   0  0  0  0  0  0  0  0  0  0  0  0
   -1.0750    4.3384   23.9513 C   0  0  0  0  0  0  0  0  0  0  0  0
   -0.6622    3.8228   22.9511 O   0  0  0  0  0  0  0  0  0  0  0  0
   -0.8129    3.6120   25.2839 C   0  0  0  0  0  0  0  0  0  0  0  0
   -2.0630    3.0775   25.9571 C   0  0  0  0  0  0  0  0  0  0  0  0
   -2.0514    3.2136   27.4905 C   0  0  0  0  0  0  0  0  0  0  0  0
   -0.7617    3.0712   28.2735 N   0  0  0  0  0  0  0  0  0  0  0  0
   -0.1522    1.7626   28.0065 C   0  0  0  0  0  0  0  0  0  0  0  0
    0.6082    1.4488   27.2123 O   0  0  0  0  0  0  0  0  0  0  0  0
   -0.8459    0.9403   29.2730 N   0  0  0  0  0  0  0  0  0  0  0  0
   -0.5892   -0.8320   30.1004 C   0  0  0  0  0  0  0  0  0  0  0  0
   -0.9091   -2.2096   29.3154 C   0  0  0  0  0  0  0  0  0  0  0  0
   -0.7115   -1.3684   28.1682 C   0  0  0  0  0  0  0  0  0  0  0  0
   -0.6773   -0.3308   29.4608 C   0  0  0  0  0  0  0  0  0  0  0  0
   -0.4890    4.4090   27.6619 C   0  0  0  0  0  0  0  0  0  0  0  0
    0.0617    4.4112   26.2384 C   0  0  0  0  0  0  0  0  0  0  0  0
   -2.6181    6.2828   21.8803 C   0  0  0  0  0  0  0  0  0  0  0  0
   -1.6401    5.6086   21.0830 O   0  0  0  0  0  0  0  0  0  0  0  0
   -3.9474    5.5345   22.0470 C   0  0  0  0  0  0  0  0  0  0  0  0
   -4.9499    5.9833   22.5851 O   0  0  0  0  0  0  0  0  0  0  0  0
   -3.9361    4.3092   21.4852 O   0  0  0  0  0  0  0  0  0  0  0  0
   -3.1898    9.9413   23.8045 H   0  0  0  0  0  0  0  0  0  0  0  0
   -1.8030    9.4531   22.8172 H   0  0  0  0  0  0  0  0  0  0  0  0
   -3.4572    9.0466   22.3092 H   0  0  0  0  0  0  0  0  0  0  0  0
   -3.7124    7.5373   24.2503 H   0  0  0  0  0  0  0  0  0  0  0  0
   -2.1770    8.0577   24.9003 H   0  0  0  0  0  0  0  0  0  0  0  0
   -0.9738    7.0739   22.9872 H   0  0  0  0  0  0  0  0  0  0  0  0
   -1.8544    5.7465   25.1508 H   0  0  0  0  0  0  0  0  0  0  0  0
   -0.2139    2.7372   25.0000 H   0  0  0  0  0  0  0  0  0  0  0  0
   -2.1618    2.0139   25.6998 H   0  0  0  0  0  0  0  0  0  0  0  0
   -2.9739    3.5471   25.5663 H   0  0  0  0  0  0  0  0  0  0  0  0
   -2.6388    2.3441   27.8254 H   0  0  0  0  0  0  0  0  0  0  0  0
   -2.6885    4.0356   27.8522 H   0  0  0  0  0  0  0  0  0  0  0  0
   -1.2729   -0.8355   31.1005 H   0  0  0  0  0  0  0  0  0  0  0  0
    0.4803   -0.9161   30.6982 H   0  0  0  0  0  0  0  0  0  0  0  0
   -1.9339   -2.5544   29.4770 H   0  0  0  0  0  0  0  0  0  0  0  0
   -0.1607   -2.9842   29.4958 H   0  0  0  0  0  0  0  0  0  0  0  0
    0.2502   -1.4951   27.6638 H   0  0  0  0  0  0  0  0  0  0  0  0
   -1.5570   -1.2364   27.4877 H   0  0  0  0  0  0  0  0  0  0  0  0
   -1.8832   -0.1777   29.1214 H   0  0  0  0  0  0  0  0  0  0  0  0
    0.4464   -0.0484   28.9696 H   0  0  0  0  0  0  0  0  0  0  0  0
   -1.2152    5.2143   27.8658 H   0  0  0  0  0  0  0  0  0  0  0  0
    0.3634    4.7499   28.2713 H   0  0  0  0  0  0  0  0  0  0  0  0
    1.0661    3.9660   26.2448 H   0  0  0  0  0  0  0  0  0  0  0  0
    0.2171    5.4456   25.9117 H   0  0  0  0  0  0  0  0  0  0  0  0
   -2.8622    7.1707   21.2889 H   0  0  0  0  0  0  0  0  0  0  0  0
   -1.4276    4.7731   21.5527 H   0  0  0  0  0  0  0  0  0  0  0  0
   -4.8549    3.9410   21.5022 H   0  0  0  0  0  0  0  0  0  0  0  0
  1  2  1  0
  2  3  1  0
  3  4  1  0
  4  5  1  0
  5  6  2  0
  5  7  1  0
  7  8  1  0
  8  9  1  0
  9 10  1  0
 10 11  1  0
 11 12  2  0
 11 13  1  0
 13 14  1  0
 14 15  1  0
 15 16  1  0
 16 17  1  0
 10 18  1  0
 18 19  1  0
  3 20  1  0
 20 21  1  0
 20 22  1  0
 22 23  2  0
 22 24  1  0
 19  7  1  0
 17 13  1  0
  1 25  1  0
  1 26  1  0
  1 27  1  0
  2 28  1  0
  2 29  1  0
  3 30  1  0
  4 31  1  0
  7 32  1  0
  8 33  1  0
  8 34  1  0
  9 35  1  0
  9 36  1  0
 14 37  1  0
 14 38  1  0
 15 39  1  0
 15 40  1  0
 16 41  1  0
 16 42  1  0
 17 43  1  0
 17 44  1  0
 18 45  1  0
 18 46  1  0
 19 47  1  0
 19 48  1  0
 20 49  1  0
 21 50  1  0
 24 51  1  0
M  END
>  <Energy>  (1012) 
796.21659176741923

>  <compound_id>  (1012) 
33512

>  <target_id>  (1012) 
1

>  <reference_id>  (1012) 
44

>  <inspiration_ids>  (1012) 
[44, 30]

>  <energy_score>  (1012) 
790.262076806627

>  <distance_score>  (1012) 
19.522660775633568

>  <path>  (1012) 
/opt/xchem-fragalysis-2/maxwin/BulkDock/SCRATCH/511015/C33512-P44/C33512-P44.minimised.mol

>  <scratch_subdir>  (1012) 
/opt/xchem-fragalysis-2/maxwin/BulkDock/SCRATCH/511015/C33512-P44

>  <fragmenstein_runtime>  (1012) 
31.158465147018433

>  <fragmenstein_outcome>  (1012) 
too moved

>  <fragmenstein_mode>  (1012) 
expansion

>  <fragmenstein_error>  (1012) 


$$$$
C33512-P30
     RDKit          3D

 51 52  0  0  0  0  0  0  0  0999 V2000
  -11.4784  -10.3579   25.6444 C   0  0  0  0  0  0  0  0  0  0  0  0
  -10.6681  -10.6994   24.3253 C   0  0  0  0  0  0  0  0  0  0  0  0
   -9.6361   -9.7284   22.9727 C   0  0  0  0  0  0  0  0  0  0  0  0
   -8.4906   -8.2400   23.0976 N   0  0  0  0  0  0  0  0  0  0  0  0
   -7.8475   -6.9781   21.8051 C   0  0  0  0  0  0  0  0  0  0  0  0
   -8.1670   -6.8702   20.6251 O   0  0  0  0  0  0  0  0  0  0  0  0
   -6.3122   -5.7883   22.5560 C   0  0  0  0  0  0  0  0  0  0  0  0
   -5.2132   -4.2915   22.6214 C   0  0  0  0  0  0  0  0  0  0  0  0
   -3.4587   -3.9976   23.3790 C   0  0  0  0  0  0  0  0  0  0  0  0
   -2.2009   -5.0555   24.0861 N   0  0  0  0  0  0  0  0  0  0  0  0
   -2.0925   -5.5693   25.8372 C   0  0  0  0  0  0  0  0  0  0  0  0
   -2.6105   -6.5334   26.1751 O   0  0  0  0  0  0  0  0  0  0  0  0
   -1.0989   -4.2663   26.8019 N   0  0  0  0  0  0  0  0  0  0  0  0
   -0.9674   -4.3471   28.7502 C   0  0  0  0  0  0  0  0  0  0  0  0
    0.2525   -3.8796   29.7489 C   0  0  0  0  0  0  0  0  0  0  0  0
    0.9855   -4.3763   28.6310 C   0  0  0  0  0  0  0  0  0  0  0  0
   -0.6202   -4.1049   28.0664 C   0  0  0  0  0  0  0  0  0  0  0  0
   -2.8338   -5.7987   22.8218 C   0  0  0  0  0  0  0  0  0  0  0  0
   -4.5474   -6.3724   22.5302 C   0  0  0  0  0  0  0  0  0  0  0  0
   -9.3672  -11.6298   22.2423 C   0  0  0  0  0  0  0  0  0  0  0  0
   -7.9642  -11.6351   22.6912 O   0  0  0  0  0  0  0  0  0  0  0  0
   -9.3063  -12.9803   20.6334 C   0  0  0  0  0  0  0  0  0  0  0  0
   -8.2774  -13.5573   20.2765 O   0  0  0  0  0  0  0  0  0  0  0  0
  -10.2717  -13.2595   19.7921 O   0  0  0  0  0  0  0  0  0  0  0  0
  -12.3674  -10.9998   25.6931 H   0  0  0  0  0  0  0  0  0  0  0  0
  -10.9426  -10.6822   26.5483 H   0  0  0  0  0  0  0  0  0  0  0  0
  -11.7425   -9.3055   25.7789 H   0  0  0  0  0  0  0  0  0  0  0  0
  -11.3576  -11.3643   23.8108 H   0  0  0  0  0  0  0  0  0  0  0  0
   -9.9976  -11.3351   24.8441 H   0  0  0  0  0  0  0  0  0  0  0  0
  -10.5111   -8.9982   22.8429 H   0  0  0  0  0  0  0  0  0  0  0  0
   -7.9877   -8.1358   23.9448 H   0  0  0  0  0  0  0  0  0  0  0  0
   -6.5706   -5.2693   21.5992 H   0  0  0  0  0  0  0  0  0  0  0  0
   -5.8880   -3.5155   22.9877 H   0  0  0  0  0  0  0  0  0  0  0  0
   -5.0267   -4.0074   21.5689 H   0  0  0  0  0  0  0  0  0  0  0  0
   -2.9337   -3.5402   22.5149 H   0  0  0  0  0  0  0  0  0  0  0  0
   -3.4329   -3.1237   24.0450 H   0  0  0  0  0  0  0  0  0  0  0  0
   -1.1230   -5.5010   29.0663 H   0  0  0  0  0  0  0  0  0  0  0  0
   -1.9260   -3.8150   29.2538 H   0  0  0  0  0  0  0  0  0  0  0  0
    0.2977   -2.7984   29.9195 H   0  0  0  0  0  0  0  0  0  0  0  0
    0.2816   -4.4641   30.6707 H   0  0  0  0  0  0  0  0  0  0  0  0
    1.7731   -3.7021   28.2730 H   0  0  0  0  0  0  0  0  0  0  0  0
    1.3256   -5.4048   28.7570 H   0  0  0  0  0  0  0  0  0  0  0  0
    0.1485   -3.5229   27.3916 H   0  0  0  0  0  0  0  0  0  0  0  0
   -0.9060   -2.7674   28.1274 H   0  0  0  0  0  0  0  0  0  0  0  0
   -2.4680   -5.3272   21.8890 H   0  0  0  0  0  0  0  0  0  0  0  0
   -2.2386   -6.7216   22.7778 H   0  0  0  0  0  0  0  0  0  0  0  0
   -4.4873   -7.4457   22.3733 H   0  0  0  0  0  0  0  0  0  0  0  0
   -4.4273   -5.9987   21.5345 H   0  0  0  0  0  0  0  0  0  0  0  0
  -10.4718  -11.6814   22.4090 H   0  0  0  0  0  0  0  0  0  0  0  0
   -7.4060  -11.8004   21.9154 H   0  0  0  0  0  0  0  0  0  0  0  0
   -9.8985  -14.1547   19.6039 H   0  0  0  0  0  0  0  0  0  0  0  0
  1  2  1  0
  2  3  1  0
  3  4  1  0
  4  5  1  0
  5  6  2  0
  5  7  1  0
  7  8  1  0
  8  9  1  0
  9 10  1  0
 10 11  1  0
 11 12  2  0
 11 13  1  0
 13 14  1  0
 14 15  1  0
 15 16  1  0
 16 17  1  0
 10 18  1  0
 18 19  1  0
  3 20  1  0
 20 21  1  0
 20 22  1  0
 22 23  2  0
 22 24  1  0
 19  7  1  0
 17 13  1  0
  1 25  1  0
  1 26  1  0
  1 27  1  0
  2 28  1  0
  2 29  1  0
  3 30  1  0
  4 31  1  0
  7 32  1  0
  8 33  1  0
  8 34  1  0
  9 35  1  0
  9 36  1  0
 14 37  1  0
 14 38  1  0
 15 39  1  0
 15 40  1  0
 16 41  1  0
 16 42  1  0
 17 43  1  0
 17 44  1  0
 18 45  1  0
 18 46  1  0
 19 47  1  0
 19 48  1  0
 20 49  1  0
 21 50  1  0
 24 51  1  0
M  END
>  <Energy>  (1013) 
1719.8974090394672

>  <compound_id>  (1013) 
33512

>  <target_id>  (1013) 
1

>  <reference_id>  (1013) 
30

>  <inspiration_ids>  (1013) 
[44, 30]

>  <energy_score>  (1013) 
1713.9428940786725

>  <distance_score>  (1013) 
11.618610860580366

>  <path>  (1013) 
/opt/xchem-fragalysis-2/maxwin/BulkDock/SCRATCH/511015/C33512-P30/C33512-P30.minimised.mol

>  <scratch_subdir>  (1013) 
/opt/xchem-fragalysis-2/maxwin/BulkDock/SCRATCH/511015/C33512-P30

>  <fragmenstein_runtime>  (1013) 
21.946667432785034

>  <fragmenstein_outcome>  (1013) 
too moved

>  <fragmenstein_mode>  (1013) 
expansion

>  <fragmenstein_error>  (1013) 


$$$$
C33540-P44
     RDKit          3D

 57 58  0  0  0  0  0  0  0  0999 V2000
  -15.5613   -9.4229   22.8622 C   0  0  0  0  0  0  0  0  0  0  0  0
  -14.9078  -10.2757   23.9271 C   0  0  0  0  0  0  0  0  0  0  0  0
  -15.3143  -10.3687   25.0171 O   0  0  0  0  0  0  0  0  0  0  0  0
  -13.6485  -10.8999   23.2662 N   0  0  0  0  0  0  0  0  0  0  0  0
  -12.6824  -11.8451   23.7891 C   0  0  0  0  0  0  0  0  0  0  0  0
  -13.3800  -12.9865   24.5290 C   0  0  0  0  0  0  0  0  0  0  0  0
  -11.5761  -11.1866   24.6464 C   0  0  0  0  0  0  0  0  0  0  0  0
  -10.6720  -10.2464   23.8363 C   0  0  0  0  0  0  0  0  0  0  0  0
   -9.6519   -9.3098   24.7294 C   0  0  0  0  0  0  0  0  0  0  0  0
  -10.1289   -8.7476   26.0150 N   0  0  0  0  0  0  0  0  0  0  0  0
   -9.7646   -7.4502   26.5355 C   0  0  0  0  0  0  0  0  0  0  0  0
  -10.4860   -6.4935   26.2213 O   0  0  0  0  0  0  0  0  0  0  0  0
   -8.4982   -7.1776   27.6466 C   0  0  0  0  0  0  0  0  0  0  0  0
   -7.9653   -5.8114   27.9439 O   0  0  0  0  0  0  0  0  0  0  0  0
   -7.2754   -5.5071   29.2533 C   0  0  0  0  0  0  0  0  0  0  0  0
   -6.7987   -3.9909   29.5982 C   0  0  0  0  0  0  0  0  0  0  0  0
   -6.1372   -3.8431   31.0203 C   0  0  0  0  0  0  0  0  0  0  0  0
   -7.9576   -3.0697   29.4140 N   0  0  0  0  0  0  0  0  0  0  0  0
   -8.2699   -1.9430   30.2797 C   0  0  0  0  0  0  0  0  0  0  0  0
   -9.2335   -1.0812   29.4649 C   0  0  0  0  0  0  0  0  0  0  0  0
   -8.9140   -1.3306   28.0082 C   0  0  0  0  0  0  0  0  0  0  0  0
   -8.2576   -2.6926   28.0401 C   0  0  0  0  0  0  0  0  0  0  0  0
  -11.0284   -9.6362   26.7434 C   0  0  0  0  0  0  0  0  0  0  0  0
  -12.1105  -10.3174   25.8491 C   0  0  0  0  0  0  0  0  0  0  0  0
  -16.5007   -9.0168   23.2485 H   0  0  0  0  0  0  0  0  0  0  0  0
  -15.7834  -10.0279   21.9788 H   0  0  0  0  0  0  0  0  0  0  0  0
  -14.9012   -8.5933   22.5951 H   0  0  0  0  0  0  0  0  0  0  0  0
  -13.5498  -10.5443   22.3214 H   0  0  0  0  0  0  0  0  0  0  0  0
  -12.2139  -12.2808   22.8993 H   0  0  0  0  0  0  0  0  0  0  0  0
  -12.6587  -13.7478   24.8423 H   0  0  0  0  0  0  0  0  0  0  0  0
  -14.1175  -13.4718   23.8799 H   0  0  0  0  0  0  0  0  0  0  0  0
  -13.9099  -12.6386   25.4206 H   0  0  0  0  0  0  0  0  0  0  0  0
  -10.9633  -11.9639   25.1059 H   0  0  0  0  0  0  0  0  0  0  0  0
  -11.3018   -9.5346   23.2866 H   0  0  0  0  0  0  0  0  0  0  0  0
  -10.0933  -10.7833   23.0951 H   0  0  0  0  0  0  0  0  0  0  0  0
   -8.7647   -9.8891   24.9904 H   0  0  0  0  0  0  0  0  0  0  0  0
   -9.3326   -8.4696   24.1051 H   0  0  0  0  0  0  0  0  0  0  0  0
   -7.6497   -7.7736   27.2973 H   0  0  0  0  0  0  0  0  0  0  0  0
   -8.8619   -7.5930   28.5927 H   0  0  0  0  0  0  0  0  0  0  0  0
   -6.4675   -6.2254   29.3718 H   0  0  0  0  0  0  0  0  0  0  0  0
   -8.0208   -5.7714   30.0148 H   0  0  0  0  0  0  0  0  0  0  0  0
   -6.0087   -3.7933   28.8795 H   0  0  0  0  0  0  0  0  0  0  0  0
   -5.8325   -4.8190   31.4029 H   0  0  0  0  0  0  0  0  0  0  0  0
   -5.2853   -3.1691   31.0618 H   0  0  0  0  0  0  0  0  0  0  0  0
   -6.8654   -3.4947   31.7604 H   0  0  0  0  0  0  0  0  0  0  0  0
   -7.4423   -1.3408   30.6423 H   0  0  0  0  0  0  0  0  0  0  0  0
   -8.7869   -2.3010   31.1779 H   0  0  0  0  0  0  0  0  0  0  0  0
  -10.2543   -1.4447   29.6531 H   0  0  0  0  0  0  0  0  0  0  0  0
   -9.2499   -0.0279   29.7573 H   0  0  0  0  0  0  0  0  0  0  0  0
   -8.2913   -0.5796   27.5292 H   0  0  0  0  0  0  0  0  0  0  0  0
   -9.8406   -1.3586   27.4224 H   0  0  0  0  0  0  0  0  0  0  0  0
   -7.3834   -2.6576   27.4405 H   0  0  0  0  0  0  0  0  0  0  0  0
   -8.9327   -3.4318   27.5958 H   0  0  0  0  0  0  0  0  0  0  0  0
  -10.4060  -10.4091   27.2092 H   0  0  0  0  0  0  0  0  0  0  0  0
  -11.5104   -9.0690   27.5473 H   0  0  0  0  0  0  0  0  0  0  0  0
  -12.7331  -10.9445   26.4967 H   0  0  0  0  0  0  0  0  0  0  0  0
  -12.7491   -9.5170   25.4578 H   0  0  0  0  0  0  0  0  0  0  0  0
  1  2  1  0
  2  3  2  0
  2  4  1  0
  4  5  1  0
  5  6  1  0
  5  7  1  0
  7  8  1  0
  8  9  1  0
  9 10  1  0
 10 11  1  0
 11 12  2  0
 11 13  1  0
 13 14  1  0
 14 15  1  0
 15 16  1  0
 16 17  1  0
 16 18  1  0
 18 19  1  0
 19 20  1  0
 20 21  1  0
 21 22  1  0
 10 23  1  0
 23 24  1  0
 24  7  1  0
 22 18  1  0
  1 25  1  0
  1 26  1  0
  1 27  1  0
  4 28  1  0
  5 29  1  0
  6 30  1  0
  6 31  1  0
  6 32  1  0
  7 33  1  0
  8 34  1  0
  8 35  1  0
  9 36  1  0
  9 37  1  0
 13 38  1  0
 13 39  1  0
 15 40  1  0
 15 41  1  0
 16 42  1  0
 17 43  1  0
 17 44  1  0
 17 45  1  0
 19 46  1  0
 19 47  1  0
 20 48  1  0
 20 49  1  0
 21 50  1  0
 21 51  1  0
 22 52  1  0
 22 53  1  0
 23 54  1  0
 23 55  1  0
 24 56  1  0
 24 57  1  0
M  END
>  <Energy>  (1014) 
129.86106562376412

>  <compound_id>  (1014) 
33540

>  <target_id>  (1014) 
1

>  <reference_id>  (1014) 
44

>  <inspiration_ids>  (1014) 
[44, 30]

>  <energy_score>  (1014) 
37.21313713219445

>  <distance_score>  (1014) 
15.697185200572166

>  <path>  (1014) 
/opt/xchem-fragalysis-2/maxwin/BulkDock/SCRATCH/511015/C33540-P44/C33540-P44.minimised.mol

>  <scratch_subdir>  (1014) 
/opt/xchem-fragalysis-2/maxwin/BulkDock/SCRATCH/511015/C33540-P44

>  <fragmenstein_runtime>  (1014) 
27.66851258277893

>  <fragmenstein_outcome>  (1014) 
too moved

>  <fragmenstein_mode>  (1014) 
expansion

>  <fragmenstein_error>  (1014) 


$$$$
C33540-P30
     RDKit          3D

 57 58  0  0  0  0  0  0  0  0999 V2000
  -13.5585  -25.1458   10.5976 C   0  0  0  0  0  0  0  0  0  0  0  0
  -12.0731  -25.2429   10.8787 C   0  0  0  0  0  0  0  0  0  0  0  0
  -11.2908  -24.7620   10.1175 O   0  0  0  0  0  0  0  0  0  0  0  0
  -11.8713  -25.9264   12.1138 N   0  0  0  0  0  0  0  0  0  0  0  0
  -10.6553  -26.3362   12.7862 C   0  0  0  0  0  0  0  0  0  0  0  0
  -10.1448  -27.6441   12.1839 C   0  0  0  0  0  0  0  0  0  0  0  0
   -9.5533  -25.2409   12.9342 C   0  0  0  0  0  0  0  0  0  0  0  0
   -8.4200  -25.2470   11.8673 C   0  0  0  0  0  0  0  0  0  0  0  0
   -7.3598  -24.1050   11.9761 C   0  0  0  0  0  0  0  0  0  0  0  0
   -8.0755  -22.7589   12.3952 N   0  0  0  0  0  0  0  0  0  0  0  0
   -7.4696  -21.5878   12.7951 C   0  0  0  0  0  0  0  0  0  0  0  0
   -7.3229  -21.6020   13.9934 O   0  0  0  0  0  0  0  0  0  0  0  0
   -6.6633  -20.0552   12.0703 C   0  0  0  0  0  0  0  0  0  0  0  0
   -5.8404  -18.6471   12.7872 O   0  0  0  0  0  0  0  0  0  0  0  0
   -6.1543  -16.9841   12.8140 C   0  0  0  0  0  0  0  0  0  0  0  0
   -5.7103  -15.6848   14.0882 C   0  0  0  0  0  0  0  0  0  0  0  0
   -7.0795  -15.1795   14.6529 C   0  0  0  0  0  0  0  0  0  0  0  0
   -4.8960  -14.3596   13.9103 N   0  0  0  0  0  0  0  0  0  0  0  0
   -5.1996  -13.2999   14.9491 C   0  0  0  0  0  0  0  0  0  0  0  0
   -4.0595  -12.2945   14.9017 C   0  0  0  0  0  0  0  0  0  0  0  0
   -2.8742  -13.1325   14.4742 C   0  0  0  0  0  0  0  0  0  0  0  0
   -3.4424  -14.5305   14.1527 C   0  0  0  0  0  0  0  0  0  0  0  0
   -9.5731  -22.7075   12.3796 C   0  0  0  0  0  0  0  0  0  0  0  0
  -10.1059  -23.8343   13.2714 C   0  0  0  0  0  0  0  0  0  0  0  0
  -14.0654  -24.6410   11.4252 H   0  0  0  0  0  0  0  0  0  0  0  0
  -13.7218  -24.5635    9.6857 H   0  0  0  0  0  0  0  0  0  0  0  0
  -13.9763  -26.1461   10.4540 H   0  0  0  0  0  0  0  0  0  0  0  0
  -12.7633  -26.2716   12.4496 H   0  0  0  0  0  0  0  0  0  0  0  0
  -10.9954  -26.5683   13.8052 H   0  0  0  0  0  0  0  0  0  0  0  0
   -9.2724  -28.0158   12.7309 H   0  0  0  0  0  0  0  0  0  0  0  0
   -9.8753  -27.5259   11.1291 H   0  0  0  0  0  0  0  0  0  0  0  0
  -10.9206  -28.4170   12.2313 H   0  0  0  0  0  0  0  0  0  0  0  0
   -9.0620  -25.5774   13.8523 H   0  0  0  0  0  0  0  0  0  0  0  0
   -8.8803  -25.1965   10.8748 H   0  0  0  0  0  0  0  0  0  0  0  0
   -7.8788  -26.2000   11.8930 H   0  0  0  0  0  0  0  0  0  0  0  0
   -6.4813  -24.2907   12.5814 H   0  0  0  0  0  0  0  0  0  0  0  0
   -6.8114  -24.0408   11.0261 H   0  0  0  0  0  0  0  0  0  0  0  0
   -7.1716  -19.7503   11.1704 H   0  0  0  0  0  0  0  0  0  0  0  0
   -5.7438  -20.5606   11.7396 H   0  0  0  0  0  0  0  0  0  0  0  0
   -7.2368  -16.9412   12.7033 H   0  0  0  0  0  0  0  0  0  0  0  0
   -5.6697  -16.6412   11.8970 H   0  0  0  0  0  0  0  0  0  0  0  0
   -5.1636  -16.1965   14.8638 H   0  0  0  0  0  0  0  0  0  0  0  0
   -7.8424  -15.9468   14.5405 H   0  0  0  0  0  0  0  0  0  0  0  0
   -7.4724  -14.3381   14.0706 H   0  0  0  0  0  0  0  0  0  0  0  0
   -7.0363  -14.9231   15.7150 H   0  0  0  0  0  0  0  0  0  0  0  0
   -5.2264  -13.7433   15.9523 H   0  0  0  0  0  0  0  0  0  0  0  0
   -6.1434  -12.7836   14.7508 H   0  0  0  0  0  0  0  0  0  0  0  0
   -3.8992  -11.8066   15.8678 H   0  0  0  0  0  0  0  0  0  0  0  0
   -4.2595  -11.5191   14.1535 H   0  0  0  0  0  0  0  0  0  0  0  0
   -2.4021  -12.6941   13.5878 H   0  0  0  0  0  0  0  0  0  0  0  0
   -2.1174  -13.1941   15.2633 H   0  0  0  0  0  0  0  0  0  0  0  0
   -3.2558  -15.1856   15.0134 H   0  0  0  0  0  0  0  0  0  0  0  0
   -2.9495  -14.9692   13.2795 H   0  0  0  0  0  0  0  0  0  0  0  0
   -9.8965  -21.7621   12.8164 H   0  0  0  0  0  0  0  0  0  0  0  0
  -10.0379  -22.7858   11.4010 H   0  0  0  0  0  0  0  0  0  0  0  0
  -11.1998  -23.8052   13.2648 H   0  0  0  0  0  0  0  0  0  0  0  0
   -9.8224  -23.6063   14.3082 H   0  0  0  0  0  0  0  0  0  0  0  0
  1  2  1  0
  2  3  2  0
  2  4  1  0
  4  5  1  0
  5  6  1  0
  5  7  1  0
  7  8  1  0
  8  9  1  0
  9 10  1  0
 10 11  1  0
 11 12  2  0
 11 13  1  0
 13 14  1  0
 14 15  1  0
 15 16  1  0
 16 17  1  0
 16 18  1  0
 18 19  1  0
 19 20  1  0
 20 21  1  0
 21 22  1  0
 10 23  1  0
 23 24  1  0
 24  7  1  0
 22 18  1  0
  1 25  1  0
  1 26  1  0
  1 27  1  0
  4 28  1  0
  5 29  1  0
  6 30  1  0
  6 31  1  0
  6 32  1  0
  7 33  1  0
  8 34  1  0
  8 35  1  0
  9 36  1  0
  9 37  1  0
 13 38  1  0
 13 39  1  0
 15 40  1  0
 15 41  1  0
 16 42  1  0
 17 43  1  0
 17 44  1  0
 17 45  1  0
 19 46  1  0
 19 47  1  0
 20 48  1  0
 20 49  1  0
 21 50  1  0
 21 51  1  0
 22 52  1  0
 22 53  1  0
 23 54  1  0
 23 55  1  0
 24 56  1  0
 24 57  1  0
M  END
>  <Energy>  (1015) 
277.46020265617523

>  <compound_id>  (1015) 
33540

>  <target_id>  (1015) 
1

>  <reference_id>  (1015) 
30

>  <inspiration_ids>  (1015) 
[44, 30]

>  <energy_score>  (1015) 
177.9357810585102

>  <distance_score>  (1015) 
15.133152246031974

>  <path>  (1015) 
/opt/xchem-fragalysis-2/maxwin/BulkDock/SCRATCH/511015/C33540-P30/C33540-P30.minimised.mol

>  <scratch_subdir>  (1015) 
/opt/xchem-fragalysis-2/maxwin/BulkDock/SCRATCH/511015/C33540-P30

>  <fragmenstein_runtime>  (1015) 
22.933416843414307

>  <fragmenstein_outcome>  (1015) 
too moved

>  <fragmenstein_mode>  (1015) 
expansion

>  <fragmenstein_error>  (1015) 


$$$$
C13420-P96
     RDKit          3D

 41 43  0  0  0  0  0  0  0  0999 V2000
    0.1636  -12.5770   22.2396 C   0  0  0  0  0  0  0  0  0  0  0  0
    1.7705  -12.5370   21.6463 C   0  0  0  0  0  0  0  0  0  0  0  0
    2.2561  -11.1077   22.0427 C   0  0  0  0  0  0  0  0  0  0  0  0
    3.0980   -9.5989   21.4073 C   0  0  0  0  0  0  0  0  0  0  0  0
    2.6195   -9.1704   20.4197 O   0  0  0  0  0  0  0  0  0  0  0  0
    4.2451   -9.1162   22.1972 N   0  0  0  0  0  0  0  0  0  0  0  0
    5.1411   -8.0622   21.9667 C   0  0  0  0  0  0  0  0  0  0  0  0
    6.5254   -8.1679   22.3153 C   0  0  0  0  0  0  0  0  0  0  0  0
    7.2015   -7.0331   22.1574 N   0  0  0  0  0  0  0  0  0  0  0  0
    6.2207   -6.1613   21.9163 N   0  0  0  0  0  0  0  0  0  0  0  0
    5.0269   -6.7386   21.5177 C   0  0  0  0  0  0  0  0  0  0  0  0
    3.9422   -5.8168   20.9927 C   0  0  0  0  0  0  0  0  0  0  0  0
    4.3910   -4.3682   20.6339 C   0  0  0  0  0  0  0  0  0  0  0  0
    3.7798   -4.0459   19.2773 C   0  0  0  0  0  0  0  0  0  0  0  0
    2.7070   -5.0120   19.1538 N   0  0  0  0  0  0  0  0  0  0  0  0
    3.2420   -6.2583   19.7145 C   0  0  0  0  0  0  0  0  0  0  0  0
    0.9249  -13.8649   22.3615 N   0  0  0  0  0  0  0  0  0  0  0  0
   -1.0525  -14.0675   23.1707 C   0  0  0  0  0  0  0  0  0  0  0  0
   -0.8931  -15.7428   24.3681 C   0  0  0  0  0  0  0  0  0  0  0  0
    0.6357  -16.7698   23.6054 C   0  0  0  0  0  0  0  0  0  0  0  0
    1.8527  -15.5479   23.1362 N   0  0  0  0  0  0  0  0  0  0  0  0
   -0.5047  -13.0438   21.2305 H   0  0  0  0  0  0  0  0  0  0  0  0
    0.0925  -12.2235   23.2927 H   0  0  0  0  0  0  0  0  0  0  0  0
   -0.9037  -12.3712   21.8886 H   0  0  0  0  0  0  0  0  0  0  0  0
    2.6409  -13.2011   21.6545 H   0  0  0  0  0  0  0  0  0  0  0  0
    2.9248  -11.5091   22.8024 H   0  0  0  0  0  0  0  0  0  0  0  0
    1.3418  -10.6214   22.3510 H   0  0  0  0  0  0  0  0  0  0  0  0
    4.4357   -9.7745   22.9439 H   0  0  0  0  0  0  0  0  0  0  0  0
    7.0534   -9.0425   22.6740 H   0  0  0  0  0  0  0  0  0  0  0  0
    6.4539   -5.1744   21.9657 H   0  0  0  0  0  0  0  0  0  0  0  0
    3.1898   -5.7343   21.7909 H   0  0  0  0  0  0  0  0  0  0  0  0
    5.4659   -4.1973   20.5808 H   0  0  0  0  0  0  0  0  0  0  0  0
    3.9986   -3.6824   21.3958 H   0  0  0  0  0  0  0  0  0  0  0  0
    4.5040   -4.1817   18.4719 H   0  0  0  0  0  0  0  0  0  0  0  0
    3.4088   -3.0179   19.2313 H   0  0  0  0  0  0  0  0  0  0  0  0
    2.4247   -5.1543   18.1850 H   0  0  0  0  0  0  0  0  0  0  0  0
    3.9380   -6.7282   19.0112 H   0  0  0  0  0  0  0  0  0  0  0  0
    2.4093   -6.9263   19.9166 H   0  0  0  0  0  0  0  0  0  0  0  0
   -1.6972  -13.1899   23.2156 H   0  0  0  0  0  0  0  0  0  0  0  0
   -1.7439  -16.2011   24.9232 H   0  0  0  0  0  0  0  0  0  0  0  0
    0.8940  -17.7779   23.4817 H   0  0  0  0  0  0  0  0  0  0  0  0
  1  2  1  0
  2  3  1  0
  3  4  1  0
  4  5  2  0
  4  6  1  0
  6  7  1  0
  7  8  1  0
  8  9  2  0
  9 10  1  0
 10 11  1  0
 11 12  1  0
 12 13  1  0
 13 14  1  0
 14 15  1  0
 15 16  1  0
  2 17  1  0
 17 18  1  0
 18 19  2  0
 19 20  1  0
 20 21  2  0
 11  7  2  0
 16 12  1  0
 21 17  1  0
  1 22  1  0
  1 23  1  0
  1 24  1  0
  2 25  1  0
  3 26  1  0
  3 27  1  0
  6 28  1  0
  8 29  1  0
 10 30  1  0
 12 31  1  0
 13 32  1  0
 13 33  1  0
 14 34  1  0
 14 35  1  0
 15 36  1  0
 16 37  1  0
 16 38  1  0
 18 39  1  0
 19 40  1  0
 20 41  1  0
M  END
>  <Energy>  (1016) 
1110.8135285402022

>  <compound_id>  (1016) 
13420

>  <target_id>  (1016) 
1

>  <reference_id>  (1016) 
96

>  <inspiration_ids>  (1016) 
[96, 124]

>  <energy_score>  (1016) 
1049.655686149794

>  <distance_score>  (1016) 
13.932523085461089

>  <path>  (1016) 
/opt/xchem-fragalysis-2/maxwin/BulkDock/SCRATCH/511015/C13420-P96/C13420-P96.minimised.mol

>  <scratch_subdir>  (1016) 
/opt/xchem-fragalysis-2/maxwin/BulkDock/SCRATCH/511015/C13420-P96

>  <fragmenstein_runtime>  (1016) 
23.847203969955444

>  <fragmenstein_outcome>  (1016) 
too moved

>  <fragmenstein_mode>  (1016) 
expansion

>  <fragmenstein_error>  (1016) 


$$$$
C13420-P124
     RDKit          3D

 41 43  0  0  0  0  0  0  0  0999 V2000
    1.5147  -20.8612   16.8309 C   0  0  0  0  0  0  0  0  0  0  0  0
    0.3935  -19.8051   16.7861 C   0  0  0  0  0  0  0  0  0  0  0  0
    0.8999  -18.3516   17.6944 C   0  0  0  0  0  0  0  0  0  0  0  0
    2.0402  -17.3768   16.9975 C   0  0  0  0  0  0  0  0  0  0  0  0
    2.4442  -17.9004   15.9645 O   0  0  0  0  0  0  0  0  0  0  0  0
    2.7848  -15.7742   17.8039 N   0  0  0  0  0  0  0  0  0  0  0  0
    4.1519  -14.9343   17.3715 C   0  0  0  0  0  0  0  0  0  0  0  0
    4.7641  -15.3529   16.0483 C   0  0  0  0  0  0  0  0  0  0  0  0
    5.9638  -14.8724   15.7650 N   0  0  0  0  0  0  0  0  0  0  0  0
    6.2206  -14.1397   16.8298 N   0  0  0  0  0  0  0  0  0  0  0  0
    5.2320  -14.0577   17.8130 C   0  0  0  0  0  0  0  0  0  0  0  0
    5.7132  -13.1394   18.9461 C   0  0  0  0  0  0  0  0  0  0  0  0
    6.3417  -11.7893   18.4537 C   0  0  0  0  0  0  0  0  0  0  0  0
    7.8604  -11.9438   18.4485 C   0  0  0  0  0  0  0  0  0  0  0  0
    8.0942  -13.3421   18.8090 N   0  0  0  0  0  0  0  0  0  0  0  0
    6.9445  -13.7416   19.6469 C   0  0  0  0  0  0  0  0  0  0  0  0
   -0.9671  -20.3695   17.1586 N   0  0  0  0  0  0  0  0  0  0  0  0
   -1.3157  -21.6947   17.3787 C   0  0  0  0  0  0  0  0  0  0  0  0
   -2.5903  -21.7113   17.9030 C   0  0  0  0  0  0  0  0  0  0  0  0
   -2.9784  -20.3651   17.9160 C   0  0  0  0  0  0  0  0  0  0  0  0
   -2.0265  -19.5507   17.4455 N   0  0  0  0  0  0  0  0  0  0  0  0
    1.3014  -21.6847   16.1407 H   0  0  0  0  0  0  0  0  0  0  0  0
    1.6430  -21.2887   17.8293 H   0  0  0  0  0  0  0  0  0  0  0  0
    2.4713  -20.4287   16.5248 H   0  0  0  0  0  0  0  0  0  0  0  0
    0.2711  -19.5660   15.7190 H   0  0  0  0  0  0  0  0  0  0  0  0
    0.0598  -18.1047   18.2777 H   0  0  0  0  0  0  0  0  0  0  0  0
    1.5952  -18.8908   18.3258 H   0  0  0  0  0  0  0  0  0  0  0  0
    2.2373  -15.5019   18.5833 H   0  0  0  0  0  0  0  0  0  0  0  0
    4.2868  -16.0010   15.3227 H   0  0  0  0  0  0  0  0  0  0  0  0
    7.1496  -13.7366   16.8996 H   0  0  0  0  0  0  0  0  0  0  0  0
    4.8991  -12.9413   19.6420 H   0  0  0  0  0  0  0  0  0  0  0  0
    5.9528  -11.4668   17.4820 H   0  0  0  0  0  0  0  0  0  0  0  0
    6.1426  -11.0043   19.1895 H   0  0  0  0  0  0  0  0  0  0  0  0
    8.3186  -11.2744   19.1856 H   0  0  0  0  0  0  0  0  0  0  0  0
    8.2905  -11.7159   17.4687 H   0  0  0  0  0  0  0  0  0  0  0  0
    8.9673  -13.4409   19.3255 H   0  0  0  0  0  0  0  0  0  0  0  0
    7.0720  -13.2998   20.6392 H   0  0  0  0  0  0  0  0  0  0  0  0
    6.9034  -14.8300   19.7419 H   0  0  0  0  0  0  0  0  0  0  0  0
   -0.6178  -22.4955   17.1864 H   0  0  0  0  0  0  0  0  0  0  0  0
   -3.1572  -22.5761   18.2132 H   0  0  0  0  0  0  0  0  0  0  0  0
   -3.9180  -19.9363   18.2369 H   0  0  0  0  0  0  0  0  0  0  0  0
  1  2  1  0
  2  3  1  0
  3  4  1  0
  4  5  2  0
  4  6  1  0
  6  7  1  0
  7  8  1  0
  8  9  2  0
  9 10  1  0
 10 11  1  0
 11 12  1  0
 12 13  1  0
 13 14  1  0
 14 15  1  0
 15 16  1  0
  2 17  1  0
 17 18  1  0
 18 19  2  0
 19 20  1  0
 20 21  2  0
 11  7  2  0
 16 12  1  0
 21 17  1  0
  1 22  1  0
  1 23  1  0
  1 24  1  0
  2 25  1  0
  3 26  1  0
  3 27  1  0
  6 28  1  0
  8 29  1  0
 10 30  1  0
 12 31  1  0
 13 32  1  0
 13 33  1  0
 14 34  1  0
 14 35  1  0
 15 36  1  0
 16 37  1  0
 16 38  1  0
 18 39  1  0
 19 40  1  0
 20 41  1  0
M  END
>  <Energy>  (1017) 
211.25001077563351

>  <compound_id>  (1017) 
13420

>  <target_id>  (1017) 
1

>  <reference_id>  (1017) 
124

>  <inspiration_ids>  (1017) 
[96, 124]

>  <energy_score>  (1017) 
150.09216838522303

>  <distance_score>  (1017) 
16.144900925052966

>  <path>  (1017) 
/opt/xchem-fragalysis-2/maxwin/BulkDock/SCRATCH/511015/C13420-P124/C13420-P124.minimised.mol

>  <scratch_subdir>  (1017) 
/opt/xchem-fragalysis-2/maxwin/BulkDock/SCRATCH/511015/C13420-P124

>  <fragmenstein_runtime>  (1017) 
26.41987943649292

>  <fragmenstein_outcome>  (1017) 
too moved

>  <fragmenstein_mode>  (1017) 
expansion

>  <fragmenstein_error>  (1017) 


$$$$
C13796-P96
     RDKit          3D

 40 42  0  0  0  0  0  0  0  0999 V2000
   -0.7986  -17.8672   17.1615 C   0  0  0  0  0  0  0  0  0  0  0  0
    0.4665  -17.0000   17.2753 C   0  0  0  0  0  0  0  0  0  0  0  0
    0.2016  -15.2038   18.0104 C   0  0  0  0  0  0  0  0  0  0  0  0
    1.0702  -13.7982   16.7115 C   0  0  0  0  0  0  0  0  0  0  0  0
    0.2161  -13.3197   15.9938 O   0  0  0  0  0  0  0  0  0  0  0  0
    2.6862  -13.3105   16.7742 N   0  0  0  0  0  0  0  0  0  0  0  0
    3.5057  -12.0315   16.0168 C   0  0  0  0  0  0  0  0  0  0  0  0
    3.1750  -11.0083   14.9520 C   0  0  0  0  0  0  0  0  0  0  0  0
    4.2004  -10.4090   14.3397 N   0  0  0  0  0  0  0  0  0  0  0  0
    5.1877  -10.7272   15.1398 N   0  0  0  0  0  0  0  0  0  0  0  0
    4.7793  -11.3638   16.3072 C   0  0  0  0  0  0  0  0  0  0  0  0
    5.6597  -10.9585   17.4790 C   0  0  0  0  0  0  0  0  0  0  0  0
    7.1695  -11.2452   17.3170 C   0  0  0  0  0  0  0  0  0  0  0  0
    7.8779  -10.0949   18.0054 C   0  0  0  0  0  0  0  0  0  0  0  0
    7.0588   -8.9255   17.7036 N   0  0  0  0  0  0  0  0  0  0  0  0
    5.6693   -9.4137   17.7202 C   0  0  0  0  0  0  0  0  0  0  0  0
   -1.3009  -15.5504   18.9081 N   0  0  0  0  0  0  0  0  0  0  0  0
   -2.5379  -15.2461   18.3765 C   0  0  0  0  0  0  0  0  0  0  0  0
   -3.4012  -16.2116   18.4880 N   0  0  0  0  0  0  0  0  0  0  0  0
   -2.6724  -17.1114   19.1329 C   0  0  0  0  0  0  0  0  0  0  0  0
   -1.4383  -16.7428   19.5289 N   0  0  0  0  0  0  0  0  0  0  0  0
   -1.7233  -17.4645   16.9315 H   0  0  0  0  0  0  0  0  0  0  0  0
   -0.5121  -18.6869   16.5077 H   0  0  0  0  0  0  0  0  0  0  0  0
   -1.3673  -18.2355   17.9812 H   0  0  0  0  0  0  0  0  0  0  0  0
    1.2655  -17.6829   17.4961 H   0  0  0  0  0  0  0  0  0  0  0  0
    0.9307  -16.8948   16.2730 H   0  0  0  0  0  0  0  0  0  0  0  0
    0.4975  -14.9139   19.0298 H   0  0  0  0  0  0  0  0  0  0  0  0
    3.1825  -13.9174   17.3788 H   0  0  0  0  0  0  0  0  0  0  0  0
    2.2051  -10.7478   14.5495 H   0  0  0  0  0  0  0  0  0  0  0  0
    6.0838  -10.2931   14.9516 H   0  0  0  0  0  0  0  0  0  0  0  0
    5.2273  -11.3961   18.3674 H   0  0  0  0  0  0  0  0  0  0  0  0
    7.4647  -12.2013   17.7556 H   0  0  0  0  0  0  0  0  0  0  0  0
    7.4790  -11.2741   16.2662 H   0  0  0  0  0  0  0  0  0  0  0  0
    8.9022   -9.9694   17.6409 H   0  0  0  0  0  0  0  0  0  0  0  0
    7.9282  -10.2424   19.0879 H   0  0  0  0  0  0  0  0  0  0  0  0
    7.2735   -8.6161   16.7529 H   0  0  0  0  0  0  0  0  0  0  0  0
    5.0855   -8.8404   16.9947 H   0  0  0  0  0  0  0  0  0  0  0  0
    5.2470   -9.1960   18.7072 H   0  0  0  0  0  0  0  0  0  0  0  0
   -2.5995  -14.4148   17.7120 H   0  0  0  0  0  0  0  0  0  0  0  0
   -3.0237  -18.1300   19.2030 H   0  0  0  0  0  0  0  0  0  0  0  0
  1  2  1  0
  2  3  1  0
  3  4  1  0
  4  5  2  0
  4  6  1  0
  6  7  1  0
  7  8  1  0
  8  9  2  0
  9 10  1  0
 10 11  1  0
 11 12  1  0
 12 13  1  0
 13 14  1  0
 14 15  1  0
 15 16  1  0
  3 17  1  0
 17 18  1  0
 18 19  2  0
 19 20  1  0
 20 21  2  0
 11  7  2  0
 16 12  1  0
 21 17  1  0
  1 22  1  0
  1 23  1  0
  1 24  1  0
  2 25  1  0
  2 26  1  0
  3 27  1  0
  6 28  1  0
  8 29  1  0
 10 30  1  0
 12 31  1  0
 13 32  1  0
 13 33  1  0
 14 34  1  0
 14 35  1  0
 15 36  1  0
 16 37  1  0
 16 38  1  0
 18 39  1  0
 20 40  1  0
M  END
>  <Energy>  (1018) 
395.56086860473943

>  <compound_id>  (1018) 
13796

>  <target_id>  (1018) 
1

>  <reference_id>  (1018) 
96

>  <inspiration_ids>  (1018) 
[96, 124]

>  <energy_score>  (1018) 
326.10105194729204

>  <distance_score>  (1018) 
14.352070614387769

>  <path>  (1018) 
/opt/xchem-fragalysis-2/maxwin/BulkDock/SCRATCH/511015/C13796-P96/C13796-P96.minimised.mol

>  <scratch_subdir>  (1018) 
/opt/xchem-fragalysis-2/maxwin/BulkDock/SCRATCH/511015/C13796-P96

>  <fragmenstein_runtime>  (1018) 
21.28747797012329

>  <fragmenstein_outcome>  (1018) 
too moved

>  <fragmenstein_mode>  (1018) 
expansion

>  <fragmenstein_error>  (1018) 


$$$$
C13796-P124
     RDKit          3D

 40 42  0  0  0  0  0  0  0  0999 V2000
    8.0078  -11.5733   26.5993 C   0  0  0  0  0  0  0  0  0  0  0  0
    6.8126  -11.6708   25.6550 C   0  0  0  0  0  0  0  0  0  0  0  0
    5.8240  -10.5012   25.8416 C   0  0  0  0  0  0  0  0  0  0  0  0
    5.8568   -9.3950   24.6713 C   0  0  0  0  0  0  0  0  0  0  0  0
    4.7935   -8.9309   24.3581 O   0  0  0  0  0  0  0  0  0  0  0  0
    7.2307   -9.0485   24.2234 N   0  0  0  0  0  0  0  0  0  0  0  0
    7.6771   -8.1484   23.2429 C   0  0  0  0  0  0  0  0  0  0  0  0
    6.8851   -7.3581   22.3592 C   0  0  0  0  0  0  0  0  0  0  0  0
    7.6013   -6.6207   21.5017 N   0  0  0  0  0  0  0  0  0  0  0  0
    8.8612   -6.8761   21.8599 N   0  0  0  0  0  0  0  0  0  0  0  0
    8.9820   -7.7949   22.8833 C   0  0  0  0  0  0  0  0  0  0  0  0
   10.3557   -8.1766   23.3602 C   0  0  0  0  0  0  0  0  0  0  0  0
   11.3069   -6.9804   23.5800 C   0  0  0  0  0  0  0  0  0  0  0  0
   12.5182   -7.2560   22.7046 C   0  0  0  0  0  0  0  0  0  0  0  0
   12.5094   -8.7058   22.5601 N   0  0  0  0  0  0  0  0  0  0  0  0
   11.1100   -9.0646   22.3617 C   0  0  0  0  0  0  0  0  0  0  0  0
    4.4448  -11.0124   26.2211 N   0  0  0  0  0  0  0  0  0  0  0  0
    3.6948  -10.6345   27.3143 C   0  0  0  0  0  0  0  0  0  0  0  0
    2.6172  -11.3802   27.4334 N   0  0  0  0  0  0  0  0  0  0  0  0
    2.7506  -12.2596   26.4045 C   0  0  0  0  0  0  0  0  0  0  0  0
    3.8521  -12.1004   25.6606 N   0  0  0  0  0  0  0  0  0  0  0  0
    8.5634  -10.6418   26.4614 H   0  0  0  0  0  0  0  0  0  0  0  0
    8.6958  -12.4060   26.4211 H   0  0  0  0  0  0  0  0  0  0  0  0
    7.6812  -11.6243   27.6432 H   0  0  0  0  0  0  0  0  0  0  0  0
    7.1771  -11.7109   24.6231 H   0  0  0  0  0  0  0  0  0  0  0  0
    6.3402  -12.6382   25.8567 H   0  0  0  0  0  0  0  0  0  0  0  0
    6.1142   -9.9324   26.7377 H   0  0  0  0  0  0  0  0  0  0  0  0
    7.8987   -9.5865   24.7555 H   0  0  0  0  0  0  0  0  0  0  0  0
    5.8040   -7.3089   22.3106 H   0  0  0  0  0  0  0  0  0  0  0  0
    9.6038   -6.3801   21.3757 H   0  0  0  0  0  0  0  0  0  0  0  0
   10.2563   -8.7107   24.3151 H   0  0  0  0  0  0  0  0  0  0  0  0
   10.8686   -6.0010   23.3636 H   0  0  0  0  0  0  0  0  0  0  0  0
   11.6126   -6.9654   24.6344 H   0  0  0  0  0  0  0  0  0  0  0  0
   13.4453   -6.8987   23.1616 H   0  0  0  0  0  0  0  0  0  0  0  0
   12.4024   -6.7701   21.7295 H   0  0  0  0  0  0  0  0  0  0  0  0
   13.1000   -9.0143   21.7892 H   0  0  0  0  0  0  0  0  0  0  0  0
   10.7998   -8.8716   21.3300 H   0  0  0  0  0  0  0  0  0  0  0  0
   10.9422  -10.1269   22.5663 H   0  0  0  0  0  0  0  0  0  0  0  0
    3.9847   -9.8219   27.9659 H   0  0  0  0  0  0  0  0  0  0  0  0
    2.0120  -13.0152   26.1863 H   0  0  0  0  0  0  0  0  0  0  0  0
  1  2  1  0
  2  3  1  0
  3  4  1  0
  4  5  2  0
  4  6  1  0
  6  7  1  0
  7  8  1  0
  8  9  2  0
  9 10  1  0
 10 11  1  0
 11 12  1  0
 12 13  1  0
 13 14  1  0
 14 15  1  0
 15 16  1  0
  3 17  1  0
 17 18  1  0
 18 19  2  0
 19 20  1  0
 20 21  2  0
 11  7  2  0
 16 12  1  0
 21 17  1  0
  1 22  1  0
  1 23  1  0
  1 24  1  0
  2 25  1  0
  2 26  1  0
  3 27  1  0
  6 28  1  0
  8 29  1  0
 10 30  1  0
 12 31  1  0
 13 32  1  0
 13 33  1  0
 14 34  1  0
 14 35  1  0
 15 36  1  0
 16 37  1  0
 16 38  1  0
 18 39  1  0
 20 40  1  0
M  END
>  <Energy>  (1019) 
48.074665527669602

>  <compound_id>  (1019) 
13796

>  <target_id>  (1019) 
1

>  <reference_id>  (1019) 
124

>  <inspiration_ids>  (1019) 
[96, 124]

>  <energy_score>  (1019) 
-21.38515112977518

>  <distance_score>  (1019) 
14.555216802492245

>  <path>  (1019) 
/opt/xchem-fragalysis-2/maxwin/BulkDock/SCRATCH/511015/C13796-P124/C13796-P124.minimised.mol

>  <scratch_subdir>  (1019) 
/opt/xchem-fragalysis-2/maxwin/BulkDock/SCRATCH/511015/C13796-P124

>  <fragmenstein_runtime>  (1019) 
31.132506132125854

>  <fragmenstein_outcome>  (1019) 
too moved

>  <fragmenstein_mode>  (1019) 
expansion

>  <fragmenstein_error>  (1019) 


$$$$
C13797-P96
     RDKit          3D

 40 42  0  0  0  0  0  0  0  0999 V2000
    4.9599  -11.7602   24.5254 O   0  0  0  0  0  0  0  0  0  0  0  0
    5.2368  -11.0206   25.4309 C   0  0  0  0  0  0  0  0  0  0  0  0
    4.6235  -11.4227   26.8671 C   0  0  0  0  0  0  0  0  0  0  0  0
    3.1431  -12.0840   26.9742 C   0  0  0  0  0  0  0  0  0  0  0  0
    2.9732  -13.6225   27.3715 C   0  0  0  0  0  0  0  0  0  0  0  0
    1.6701  -14.2422   27.6542 N   0  0  0  0  0  0  0  0  0  0  0  0
    1.3534  -15.5817   27.5213 C   0  0  0  0  0  0  0  0  0  0  0  0
    0.1080  -15.7109   28.0904 C   0  0  0  0  0  0  0  0  0  0  0  0
   -0.2958  -14.4935   28.5567 N   0  0  0  0  0  0  0  0  0  0  0  0
    0.6736  -13.6088   28.3113 N   0  0  0  0  0  0  0  0  0  0  0  0
    6.0672   -9.7868   25.4514 N   0  0  0  0  0  0  0  0  0  0  0  0
    6.6930   -9.0760   24.4000 C   0  0  0  0  0  0  0  0  0  0  0  0
    6.5806   -9.3628   23.0107 C   0  0  0  0  0  0  0  0  0  0  0  0
    7.2232   -8.5276   22.1936 N   0  0  0  0  0  0  0  0  0  0  0  0
    7.8154   -7.7057   23.0484 N   0  0  0  0  0  0  0  0  0  0  0  0
    7.5057   -7.9370   24.3740 C   0  0  0  0  0  0  0  0  0  0  0  0
    8.0366   -6.9662   25.3908 C   0  0  0  0  0  0  0  0  0  0  0  0
    9.4073   -6.3528   25.0215 C   0  0  0  0  0  0  0  0  0  0  0  0
    9.0904   -4.9469   24.5352 C   0  0  0  0  0  0  0  0  0  0  0  0
    7.9906   -4.5667   25.4145 N   0  0  0  0  0  0  0  0  0  0  0  0
    7.1154   -5.7367   25.5154 C   0  0  0  0  0  0  0  0  0  0  0  0
    5.3443  -12.1003   27.3383 H   0  0  0  0  0  0  0  0  0  0  0  0
    4.5957  -10.5023   27.4631 H   0  0  0  0  0  0  0  0  0  0  0  0
    2.6152  -11.5131   27.7497 H   0  0  0  0  0  0  0  0  0  0  0  0
    2.5993  -11.8982   26.0494 H   0  0  0  0  0  0  0  0  0  0  0  0
    3.5678  -13.8013   28.2757 H   0  0  0  0  0  0  0  0  0  0  0  0
    3.4064  -14.2195   26.5699 H   0  0  0  0  0  0  0  0  0  0  0  0
    2.0246  -16.2854   27.0522 H   0  0  0  0  0  0  0  0  0  0  0  0
   -0.5068  -16.5932   28.1894 H   0  0  0  0  0  0  0  0  0  0  0  0
    6.1555   -9.4613   26.4054 H   0  0  0  0  0  0  0  0  0  0  0  0
    5.9949  -10.1380   22.5660 H   0  0  0  0  0  0  0  0  0  0  0  0
    8.4082   -6.9784   22.6669 H   0  0  0  0  0  0  0  0  0  0  0  0
    8.1255   -7.4804   26.3558 H   0  0  0  0  0  0  0  0  0  0  0  0
    9.9916   -6.9298   24.2983 H   0  0  0  0  0  0  0  0  0  0  0  0
   10.0141   -6.2839   25.9350 H   0  0  0  0  0  0  0  0  0  0  0  0
    9.9455   -4.2744   24.6454 H   0  0  0  0  0  0  0  0  0  0  0  0
    8.7705   -4.9398   23.4881 H   0  0  0  0  0  0  0  0  0  0  0  0
    7.4895   -3.7551   25.0526 H   0  0  0  0  0  0  0  0  0  0  0  0
    6.3571   -5.7018   24.7236 H   0  0  0  0  0  0  0  0  0  0  0  0
    6.5919   -5.7331   26.4769 H   0  0  0  0  0  0  0  0  0  0  0  0
  1  2  2  0
  2  3  1  0
  3  4  1  0
  4  5  1  0
  5  6  1  0
  6  7  1  0
  7  8  2  0
  8  9  1  0
  9 10  2  0
  2 11  1  0
 11 12  1  0
 12 13  1  0
 13 14  2  0
 14 15  1  0
 15 16  1  0
 16 17  1  0
 17 18  1  0
 18 19  1  0
 19 20  1  0
 20 21  1  0
 10  6  1  0
 16 12  2  0
 21 17  1  0
  3 22  1  0
  3 23  1  0
  4 24  1  0
  4 25  1  0
  5 26  1  0
  5 27  1  0
  7 28  1  0
  8 29  1  0
 11 30  1  0
 13 31  1  0
 15 32  1  0
 17 33  1  0
 18 34  1  0
 18 35  1  0
 19 36  1  0
 19 37  1  0
 20 38  1  0
 21 39  1  0
 21 40  1  0
M  END
>  <Energy>  (1020) 
37.508385262070618

>  <compound_id>  (1020) 
13797

>  <target_id>  (1020) 
1

>  <reference_id>  (1020) 
96

>  <inspiration_ids>  (1020) 
[96, 124]

>  <energy_score>  (1020) 
1.9336997858513314

>  <distance_score>  (1020) 
14.360486156696954

>  <path>  (1020) 
/opt/xchem-fragalysis-2/maxwin/BulkDock/SCRATCH/511015/C13797-P96/C13797-P96.minimised.mol

>  <scratch_subdir>  (1020) 
/opt/xchem-fragalysis-2/maxwin/BulkDock/SCRATCH/511015/C13797-P96

>  <fragmenstein_runtime>  (1020) 
19.050983905792236

>  <fragmenstein_outcome>  (1020) 
too moved

>  <fragmenstein_mode>  (1020) 
expansion

>  <fragmenstein_error>  (1020) 


$$$$
C13797-P124
     RDKit          3D

 40 42  0  0  0  0  0  0  0  0999 V2000
   13.3861   -9.2711   15.0542 O   0  0  0  0  0  0  0  0  0  0  0  0
   12.4731   -8.7644   15.6973 C   0  0  0  0  0  0  0  0  0  0  0  0
   11.2787  -10.0973   16.2392 C   0  0  0  0  0  0  0  0  0  0  0  0
   10.9316  -10.9158   17.6522 C   0  0  0  0  0  0  0  0  0  0  0  0
   11.1465  -12.3645   18.2425 C   0  0  0  0  0  0  0  0  0  0  0  0
   10.5188  -12.5641   19.5976 N   0  0  0  0  0  0  0  0  0  0  0  0
    9.8578  -11.6544   20.3949 C   0  0  0  0  0  0  0  0  0  0  0  0
    9.4086  -12.3744   21.4714 C   0  0  0  0  0  0  0  0  0  0  0  0
    9.7316  -13.6812   21.2998 N   0  0  0  0  0  0  0  0  0  0  0  0
   10.3969  -13.8018   20.1509 N   0  0  0  0  0  0  0  0  0  0  0  0
   12.2093   -6.9918   16.2504 N   0  0  0  0  0  0  0  0  0  0  0  0
   13.1663   -5.6287   16.1413 C   0  0  0  0  0  0  0  0  0  0  0  0
   14.3967   -4.8919   15.7941 C   0  0  0  0  0  0  0  0  0  0  0  0
   14.1925   -3.5454   15.7692 N   0  0  0  0  0  0  0  0  0  0  0  0
   12.9262   -3.5078   16.2248 N   0  0  0  0  0  0  0  0  0  0  0  0
   12.8949   -4.5406   17.1533 C   0  0  0  0  0  0  0  0  0  0  0  0
   13.8662   -4.1869   18.4533 C   0  0  0  0  0  0  0  0  0  0  0  0
   14.5725   -2.8230   18.5108 C   0  0  0  0  0  0  0  0  0  0  0  0
   14.8626   -2.6065   19.9902 C   0  0  0  0  0  0  0  0  0  0  0  0
   14.4278   -3.8206   20.6867 N   0  0  0  0  0  0  0  0  0  0  0  0
   13.3608   -4.4062   19.8642 C   0  0  0  0  0  0  0  0  0  0  0  0
   11.6552  -10.9258   15.6149 H   0  0  0  0  0  0  0  0  0  0  0  0
   10.3180   -9.8645   15.7585 H   0  0  0  0  0  0  0  0  0  0  0  0
   11.3654  -10.3514   18.4616 H   0  0  0  0  0  0  0  0  0  0  0  0
    9.8324  -10.8560   17.6769 H   0  0  0  0  0  0  0  0  0  0  0  0
   12.2172  -12.5271   18.4130 H   0  0  0  0  0  0  0  0  0  0  0  0
   10.7912  -13.1440   17.5642 H   0  0  0  0  0  0  0  0  0  0  0  0
    9.7803  -10.6071   20.1505 H   0  0  0  0  0  0  0  0  0  0  0  0
    8.8921  -12.0071   22.3441 H   0  0  0  0  0  0  0  0  0  0  0  0
   11.3562   -6.8784   16.6699 H   0  0  0  0  0  0  0  0  0  0  0  0
   15.3542   -5.2352   15.4071 H   0  0  0  0  0  0  0  0  0  0  0  0
   12.4410   -2.6184   16.2371 H   0  0  0  0  0  0  0  0  0  0  0  0
   14.7467   -4.8340   18.3634 H   0  0  0  0  0  0  0  0  0  0  0  0
   14.0017   -1.9946   18.0967 H   0  0  0  0  0  0  0  0  0  0  0  0
   15.5189   -2.8550   17.9559 H   0  0  0  0  0  0  0  0  0  0  0  0
   15.9282   -2.4306   20.1678 H   0  0  0  0  0  0  0  0  0  0  0  0
   14.3216   -1.7304   20.3607 H   0  0  0  0  0  0  0  0  0  0  0  0
   14.0614   -3.5703   21.6077 H   0  0  0  0  0  0  0  0  0  0  0  0
   12.4472   -3.8824   20.0964 H   0  0  0  0  0  0  0  0  0  0  0  0
   13.2212   -5.4575   20.1129 H   0  0  0  0  0  0  0  0  0  0  0  0
  1  2  2  0
  2  3  1  0
  3  4  1  0
  4  5  1  0
  5  6  1  0
  6  7  1  0
  7  8  2  0
  8  9  1  0
  9 10  2  0
  2 11  1  0
 11 12  1  0
 12 13  1  0
 13 14  2  0
 14 15  1  0
 15 16  1  0
 16 17  1  0
 17 18  1  0
 18 19  1  0
 19 20  1  0
 20 21  1  0
 10  6  1  0
 16 12  2  0
 21 17  1  0
  3 22  1  0
  3 23  1  0
  4 24  1  0
  4 25  1  0
  5 26  1  0
  5 27  1  0
  7 28  1  0
  8 29  1  0
 11 30  1  0
 13 31  1  0
 15 32  1  0
 17 33  1  0
 18 34  1  0
 18 35  1  0
 19 36  1  0
 19 37  1  0
 20 38  1  0
 21 39  1  0
 21 40  1  0
M  END
>  <Energy>  (1021) 
297.68090266630168

>  <compound_id>  (1021) 
13797

>  <target_id>  (1021) 
1

>  <reference_id>  (1021) 
124

>  <inspiration_ids>  (1021) 
[96, 124]

>  <energy_score>  (1021) 
262.10621719007173

>  <distance_score>  (1021) 
15.44809503050631

>  <path>  (1021) 
/opt/xchem-fragalysis-2/maxwin/BulkDock/SCRATCH/511015/C13797-P124/C13797-P124.minimised.mol

>  <scratch_subdir>  (1021) 
/opt/xchem-fragalysis-2/maxwin/BulkDock/SCRATCH/511015/C13797-P124

>  <fragmenstein_runtime>  (1021) 
27.56414532661438

>  <fragmenstein_outcome>  (1021) 
too moved

>  <fragmenstein_mode>  (1021) 
expansion

>  <fragmenstein_error>  (1021) 


$$$$
C13832-P96
     RDKit          3D

 36 37  0  0  0  0  0  0  0  0999 V2000
   -3.6327   -9.7209   19.2697 C   0  0  0  0  0  0  0  0  0  0  0  0
   -3.9542  -10.1976   20.6163 N   0  0  0  0  0  0  0  0  0  0  0  0
   -2.9267   -9.0017   21.0233 C   0  0  0  0  0  0  0  0  0  0  0  0
   -1.4536   -8.5719   20.4479 C   0  0  0  0  0  0  0  0  0  0  0  0
   -1.3181   -7.8195   19.1031 C   0  0  0  0  0  0  0  0  0  0  0  0
   -0.0539   -6.9529   19.2028 C   0  0  0  0  0  0  0  0  0  0  0  0
    0.3907   -7.0629   20.5911 N   0  0  0  0  0  0  0  0  0  0  0  0
   -0.7700   -7.5237   21.3549 C   0  0  0  0  0  0  0  0  0  0  0  0
   -3.5876  -11.4532   21.3055 C   0  0  0  0  0  0  0  0  0  0  0  0
   -2.8598  -12.3494   20.9597 O   0  0  0  0  0  0  0  0  0  0  0  0
   -4.4053  -11.5751   22.6270 C   0  0  0  0  0  0  0  0  0  0  0  0
   -4.6400  -12.9179   23.2514 N   0  0  0  0  0  0  0  0  0  0  0  0
   -4.4281  -13.0168   24.6052 N   0  0  0  0  0  0  0  0  0  0  0  0
   -4.9626  -14.1906   24.9551 C   0  0  0  0  0  0  0  0  0  0  0  0
   -5.5643  -14.8513   23.8796 C   0  0  0  0  0  0  0  0  0  0  0  0
   -5.3503  -14.0293   22.7936 C   0  0  0  0  0  0  0  0  0  0  0  0
   -5.7257  -14.2411   21.5116 N   0  0  0  0  0  0  0  0  0  0  0  0
   -3.9230   -8.6866   19.0449 H   0  0  0  0  0  0  0  0  0  0  0  0
   -4.3174  -10.3046   18.6358 H   0  0  0  0  0  0  0  0  0  0  0  0
   -2.6624  -10.0614   18.9060 H   0  0  0  0  0  0  0  0  0  0  0  0
   -3.5504   -8.0912   21.0381 H   0  0  0  0  0  0  0  0  0  0  0  0
   -2.7545   -9.2043   22.0896 H   0  0  0  0  0  0  0  0  0  0  0  0
   -0.8208   -9.4558   20.4206 H   0  0  0  0  0  0  0  0  0  0  0  0
   -1.2533   -8.5034   18.2521 H   0  0  0  0  0  0  0  0  0  0  0  0
   -2.1860   -7.1672   18.9499 H   0  0  0  0  0  0  0  0  0  0  0  0
    0.7295   -7.2864   18.5181 H   0  0  0  0  0  0  0  0  0  0  0  0
   -0.2951   -5.9134   18.9534 H   0  0  0  0  0  0  0  0  0  0  0  0
    0.7213   -6.1610   20.9306 H   0  0  0  0  0  0  0  0  0  0  0  0
   -1.4480   -6.6851   21.5576 H   0  0  0  0  0  0  0  0  0  0  0  0
   -0.4582   -7.9453   22.3139 H   0  0  0  0  0  0  0  0  0  0  0  0
   -3.8965  -10.9708   23.3868 H   0  0  0  0  0  0  0  0  0  0  0  0
   -5.4119  -11.1708   22.4689 H   0  0  0  0  0  0  0  0  0  0  0  0
   -4.8954  -14.5074   25.9875 H   0  0  0  0  0  0  0  0  0  0  0  0
   -6.0700  -15.8048   23.8845 H   0  0  0  0  0  0  0  0  0  0  0  0
   -5.9971  -15.1899   21.2571 H   0  0  0  0  0  0  0  0  0  0  0  0
   -5.1298  -13.8502   20.7795 H   0  0  0  0  0  0  0  0  0  0  0  0
  1  2  1  0
  2  3  1  0
  3  4  1  0
  4  5  1  0
  5  6  1  0
  6  7  1  0
  7  8  1  0
  2  9  1  0
  9 10  2  0
  9 11  1  0
 11 12  1  0
 12 13  1  0
 13 14  2  0
 14 15  1  0
 15 16  2  0
 16 17  1  0
  8  4  1  0
 16 12  1  0
  1 18  1  0
  1 19  1  0
  1 20  1  0
  3 21  1  0
  3 22  1  0
  4 23  1  0
  5 24  1  0
  5 25  1  0
  6 26  1  0
  6 27  1  0
  7 28  1  0
  8 29  1  0
  8 30  1  0
 11 31  1  0
 11 32  1  0
 14 33  1  0
 15 34  1  0
 17 35  1  0
 17 36  1  0
M  END
>  <Energy>  (1022) 
127.49189480778799

>  <compound_id>  (1022) 
13832

>  <target_id>  (1022) 
1

>  <reference_id>  (1022) 
96

>  <inspiration_ids>  (1022) 
[96, 124]

>  <energy_score>  (1022) 
64.7998064106082

>  <distance_score>  (1022) 
16.05743300664449

>  <path>  (1022) 
/opt/xchem-fragalysis-2/maxwin/BulkDock/SCRATCH/511015/C13832-P96/C13832-P96.minimised.mol

>  <scratch_subdir>  (1022) 
/opt/xchem-fragalysis-2/maxwin/BulkDock/SCRATCH/511015/C13832-P96

>  <fragmenstein_runtime>  (1022) 
22.34326410293579

>  <fragmenstein_outcome>  (1022) 
too moved

>  <fragmenstein_mode>  (1022) 
expansion

>  <fragmenstein_error>  (1022) 


$$$$
C13832-P124
     RDKit          3D

 36 37  0  0  0  0  0  0  0  0999 V2000
    3.9811  -12.0296   17.1068 C   0  0  0  0  0  0  0  0  0  0  0  0
    2.8225  -12.4319   17.7078 N   0  0  0  0  0  0  0  0  0  0  0  0
    4.2923  -12.6486   18.9638 C   0  0  0  0  0  0  0  0  0  0  0  0
    5.6998  -11.1924   19.2022 C   0  0  0  0  0  0  0  0  0  0  0  0
    7.2321  -10.7389   19.2122 C   0  0  0  0  0  0  0  0  0  0  0  0
    7.6685   -9.7488   18.1994 C   0  0  0  0  0  0  0  0  0  0  0  0
    6.6045   -8.7510   18.1163 N   0  0  0  0  0  0  0  0  0  0  0  0
    5.3151   -9.3904   18.3431 C   0  0  0  0  0  0  0  0  0  0  0  0
    1.4896  -13.7636   17.0414 C   0  0  0  0  0  0  0  0  0  0  0  0
    1.5297  -14.5245   16.0508 O   0  0  0  0  0  0  0  0  0  0  0  0
   -0.0712  -13.7220   17.8609 C   0  0  0  0  0  0  0  0  0  0  0  0
   -1.7698  -14.3512   17.8149 N   0  0  0  0  0  0  0  0  0  0  0  0
   -2.6775  -13.5536   17.1575 N   0  0  0  0  0  0  0  0  0  0  0  0
   -3.8800  -14.0325   17.4774 C   0  0  0  0  0  0  0  0  0  0  0  0
   -3.8434  -15.0819   18.3890 C   0  0  0  0  0  0  0  0  0  0  0  0
   -2.5094  -15.2606   18.6707 C   0  0  0  0  0  0  0  0  0  0  0  0
   -2.0459  -16.2141   19.5287 N   0  0  0  0  0  0  0  0  0  0  0  0
    3.2585  -11.5358   16.3478 H   0  0  0  0  0  0  0  0  0  0  0  0
    3.9375  -10.9700   17.2761 H   0  0  0  0  0  0  0  0  0  0  0  0
    4.2980  -12.1323   16.0499 H   0  0  0  0  0  0  0  0  0  0  0  0
    4.0141  -12.7521   20.0241 H   0  0  0  0  0  0  0  0  0  0  0  0
    4.6524  -13.6804   18.8968 H   0  0  0  0  0  0  0  0  0  0  0  0
    5.6328  -11.2817   20.2991 H   0  0  0  0  0  0  0  0  0  0  0  0
    7.3351   -9.9860   19.9298 H   0  0  0  0  0  0  0  0  0  0  0  0
    8.0194  -11.3970   19.5936 H   0  0  0  0  0  0  0  0  0  0  0  0
    8.0403  -10.1283   17.2499 H   0  0  0  0  0  0  0  0  0  0  0  0
    8.5301   -9.3325   18.6977 H   0  0  0  0  0  0  0  0  0  0  0  0
    6.7037   -7.9951   18.7925 H   0  0  0  0  0  0  0  0  0  0  0  0
    4.7029   -8.6557   18.8807 H   0  0  0  0  0  0  0  0  0  0  0  0
    4.6965   -9.3219   17.4326 H   0  0  0  0  0  0  0  0  0  0  0  0
   -0.3914  -13.4676   16.7835 H   0  0  0  0  0  0  0  0  0  0  0  0
   -0.4952  -12.7043   18.0286 H   0  0  0  0  0  0  0  0  0  0  0  0
   -4.7480  -13.5734   17.0234 H   0  0  0  0  0  0  0  0  0  0  0  0
   -4.6760  -15.6259   18.8077 H   0  0  0  0  0  0  0  0  0  0  0  0
   -2.6648  -17.0160   19.6432 H   0  0  0  0  0  0  0  0  0  0  0  0
   -1.9357  -15.9105   20.5086 H   0  0  0  0  0  0  0  0  0  0  0  0
  1  2  1  0
  2  3  1  0
  3  4  1  0
  4  5  1  0
  5  6  1  0
  6  7  1  0
  7  8  1  0
  2  9  1  0
  9 10  2  0
  9 11  1  0
 11 12  1  0
 12 13  1  0
 13 14  2  0
 14 15  1  0
 15 16  2  0
 16 17  1  0
  8  4  1  0
 16 12  1  0
  1 18  1  0
  1 19  1  0
  1 20  1  0
  3 21  1  0
  3 22  1  0
  4 23  1  0
  5 24  1  0
  5 25  1  0
  6 26  1  0
  6 27  1  0
  7 28  1  0
  8 29  1  0
  8 30  1  0
 11 31  1  0
 11 32  1  0
 14 33  1  0
 15 34  1  0
 17 35  1  0
 17 36  1  0
M  END
>  <Energy>  (1023) 
691.21978514680109

>  <compound_id>  (1023) 
13832

>  <target_id>  (1023) 
1

>  <reference_id>  (1023) 
124

>  <inspiration_ids>  (1023) 
[96, 124]

>  <energy_score>  (1023) 
628.5276967496234

>  <distance_score>  (1023) 
14.388184925943593

>  <path>  (1023) 
/opt/xchem-fragalysis-2/maxwin/BulkDock/SCRATCH/511015/C13832-P124/C13832-P124.minimised.mol

>  <scratch_subdir>  (1023) 
/opt/xchem-fragalysis-2/maxwin/BulkDock/SCRATCH/511015/C13832-P124

>  <fragmenstein_runtime>  (1023) 
31.475741147994995

>  <fragmenstein_outcome>  (1023) 
too moved

>  <fragmenstein_mode>  (1023) 
expansion

>  <fragmenstein_error>  (1023) 


$$$$
C8709-P96
     RDKit          3D

 40 41  0  0  0  0  0  0  0  0999 V2000
    4.7200   -6.7163   18.8207 C   0  0  0  0  0  0  0  0  0  0  0  0
    5.3864   -7.9820   19.3902 C   0  0  0  0  0  0  0  0  0  0  0  0
    5.8808   -8.9291   18.2731 C   0  0  0  0  0  0  0  0  0  0  0  0
    6.7263   -7.3963   19.9498 C   0  0  0  0  0  0  0  0  0  0  0  0
    7.6083   -6.9595   19.2117 O   0  0  0  0  0  0  0  0  0  0  0  0
    6.8910   -7.3040   21.2851 O   0  0  0  0  0  0  0  0  0  0  0  0
    4.5650   -8.7149   20.4176 N   0  0  0  0  0  0  0  0  0  0  0  0
    3.0922   -9.5518   20.2887 C   0  0  0  0  0  0  0  0  0  0  0  0
    2.7023  -10.7390   21.5602 C   0  0  0  0  0  0  0  0  0  0  0  0
    1.2354  -11.3176   22.6026 N   0  0  0  0  0  0  0  0  0  0  0  0
   -0.2168  -12.5403   22.2348 C   0  0  0  0  0  0  0  0  0  0  0  0
   -0.3339  -13.0149   21.1265 O   0  0  0  0  0  0  0  0  0  0  0  0
   -1.6944  -13.0726   23.2762 C   0  0  0  0  0  0  0  0  0  0  0  0
   -3.1491  -12.8909   24.2439 N   0  0  0  0  0  0  0  0  0  0  0  0
   -3.1979  -13.6108   25.5842 C   0  0  0  0  0  0  0  0  0  0  0  0
   -4.6568  -13.5686   26.0105 C   0  0  0  0  0  0  0  0  0  0  0  0
   -5.3279  -14.0554   24.7568 C   0  0  0  0  0  0  0  0  0  0  0  0
   -4.4150  -13.5268   23.6436 C   0  0  0  0  0  0  0  0  0  0  0  0
    4.5048   -9.9701   22.2775 C   0  0  0  0  0  0  0  0  0  0  0  0
    5.2807   -9.1083   21.5578 N   0  0  0  0  0  0  0  0  0  0  0  0
    4.3756   -6.0658   19.6338 H   0  0  0  0  0  0  0  0  0  0  0  0
    3.8552   -6.9319   18.1925 H   0  0  0  0  0  0  0  0  0  0  0  0
    5.4055   -6.1271   18.1997 H   0  0  0  0  0  0  0  0  0  0  0  0
    6.5854   -9.6704   18.6672 H   0  0  0  0  0  0  0  0  0  0  0  0
    5.0585   -9.4834   17.8172 H   0  0  0  0  0  0  0  0  0  0  0  0
    6.3905   -8.3849   17.4693 H   0  0  0  0  0  0  0  0  0  0  0  0
    6.2906   -7.9369   21.7533 H   0  0  0  0  0  0  0  0  0  0  0  0
    2.4037   -8.7225   20.1297 H   0  0  0  0  0  0  0  0  0  0  0  0
    1.1308  -10.9583   23.5436 H   0  0  0  0  0  0  0  0  0  0  0  0
   -1.8812  -14.1243   23.1926 H   0  0  0  0  0  0  0  0  0  0  0  0
   -2.0463  -13.4458   22.3122 H   0  0  0  0  0  0  0  0  0  0  0  0
   -2.9734  -14.6840   25.5216 H   0  0  0  0  0  0  0  0  0  0  0  0
   -2.5591  -13.1580   26.3434 H   0  0  0  0  0  0  0  0  0  0  0  0
   -4.9642  -12.5449   26.2534 H   0  0  0  0  0  0  0  0  0  0  0  0
   -4.8648  -14.2108   26.8711 H   0  0  0  0  0  0  0  0  0  0  0  0
   -5.3527  -15.1513   24.7339 H   0  0  0  0  0  0  0  0  0  0  0  0
   -6.3538  -13.6852   24.6702 H   0  0  0  0  0  0  0  0  0  0  0  0
   -4.1820  -14.3412   22.9577 H   0  0  0  0  0  0  0  0  0  0  0  0
   -4.9829  -12.7597   23.1034 H   0  0  0  0  0  0  0  0  0  0  0  0
    4.8782  -10.3113   23.2610 H   0  0  0  0  0  0  0  0  0  0  0  0
  1  2  1  0
  2  3  1  0
  2  4  1  0
  4  5  2  0
  4  6  1  0
  2  7  1  0
  7  8  1  0
  8  9  2  0
  9 10  1  0
 10 11  1  0
 11 12  2  0
 11 13  1  0
 13 14  1  0
 14 15  1  0
 15 16  1  0
 16 17  1  0
 17 18  1  0
  9 19  1  0
 19 20  2  0
 20  7  1  0
 18 14  1  0
  1 21  1  0
  1 22  1  0
  1 23  1  0
  3 24  1  0
  3 25  1  0
  3 26  1  0
  6 27  1  0
  8 28  1  0
 10 29  1  0
 13 30  1  0
 13 31  1  0
 15 32  1  0
 15 33  1  0
 16 34  1  0
 16 35  1  0
 17 36  1  0
 17 37  1  0
 18 38  1  0
 18 39  1  0
 19 40  1  0
M  END
>  <Energy>  (1024) 
655.46358890833073

>  <compound_id>  (1024) 
8709

>  <target_id>  (1024) 
1

>  <reference_id>  (1024) 
96

>  <inspiration_ids>  (1024) 
[96, 124]

>  <energy_score>  (1024) 
547.8351293990668

>  <distance_score>  (1024) 
14.01605067312369

>  <path>  (1024) 
/opt/xchem-fragalysis-2/maxwin/BulkDock/SCRATCH/511015/C8709-P96/C8709-P96.minimised.mol

>  <scratch_subdir>  (1024) 
/opt/xchem-fragalysis-2/maxwin/BulkDock/SCRATCH/511015/C8709-P96

>  <fragmenstein_runtime>  (1024) 
30.652080535888672

>  <fragmenstein_outcome>  (1024) 
too moved

>  <fragmenstein_mode>  (1024) 
expansion

>  <fragmenstein_error>  (1024) 


$$$$
C8709-P124
     RDKit          3D

 40 41  0  0  0  0  0  0  0  0999 V2000
   10.8937   -7.6557   22.1439 C   0  0  0  0  0  0  0  0  0  0  0  0
   11.4170   -8.6665   23.1964 C   0  0  0  0  0  0  0  0  0  0  0  0
   12.5561   -9.4524   22.5030 C   0  0  0  0  0  0  0  0  0  0  0  0
   12.0235   -7.9183   24.3853 C   0  0  0  0  0  0  0  0  0  0  0  0
   12.8242   -8.3786   25.1885 O   0  0  0  0  0  0  0  0  0  0  0  0
   11.5937   -6.6514   24.5466 O   0  0  0  0  0  0  0  0  0  0  0  0
   10.3647   -9.5837   23.6945 N   0  0  0  0  0  0  0  0  0  0  0  0
   10.4246  -10.4400   24.7848 C   0  0  0  0  0  0  0  0  0  0  0  0
    9.1821  -11.0811   24.9377 C   0  0  0  0  0  0  0  0  0  0  0  0
    8.7390  -12.0939   26.0007 N   0  0  0  0  0  0  0  0  0  0  0  0
    7.8934  -12.7042   26.3257 C   0  0  0  0  0  0  0  0  0  0  0  0
    6.7153  -12.2245   25.3320 O   0  0  0  0  0  0  0  0  0  0  0  0
    7.5546  -13.8321   27.3374 C   0  0  0  0  0  0  0  0  0  0  0  0
    6.1231  -14.0921   27.7712 N   0  0  0  0  0  0  0  0  0  0  0  0
    5.3707  -15.0643   26.9497 C   0  0  0  0  0  0  0  0  0  0  0  0
    4.2410  -15.5275   27.8714 C   0  0  0  0  0  0  0  0  0  0  0  0
    4.8720  -15.6149   29.2337 C   0  0  0  0  0  0  0  0  0  0  0  0
    6.0996  -14.7129   29.1255 C   0  0  0  0  0  0  0  0  0  0  0  0
    8.4662  -10.5470   23.8209 C   0  0  0  0  0  0  0  0  0  0  0  0
    9.1643   -9.6727   23.0771 N   0  0  0  0  0  0  0  0  0  0  0  0
   10.4875   -8.1874   21.2785 H   0  0  0  0  0  0  0  0  0  0  0  0
   10.0824   -7.0384   22.5480 H   0  0  0  0  0  0  0  0  0  0  0  0
   11.6868   -6.9797   21.8056 H   0  0  0  0  0  0  0  0  0  0  0  0
   12.1730  -10.0386   21.6606 H   0  0  0  0  0  0  0  0  0  0  0  0
   13.3409   -8.7817   22.1351 H   0  0  0  0  0  0  0  0  0  0  0  0
   13.0307  -10.1593   23.1939 H   0  0  0  0  0  0  0  0  0  0  0  0
   12.0729   -6.3127   25.3328 H   0  0  0  0  0  0  0  0  0  0  0  0
   11.3373  -10.5100   25.3642 H   0  0  0  0  0  0  0  0  0  0  0  0
    9.6712  -11.7253   26.0659 H   0  0  0  0  0  0  0  0  0  0  0  0
    8.0081  -14.7593   26.9670 H   0  0  0  0  0  0  0  0  0  0  0  0
    8.1194  -13.5425   28.2349 H   0  0  0  0  0  0  0  0  0  0  0  0
    4.9724  -14.6122   26.0405 H   0  0  0  0  0  0  0  0  0  0  0  0
    5.9967  -15.9228   26.6768 H   0  0  0  0  0  0  0  0  0  0  0  0
    3.4550  -14.7660   27.9177 H   0  0  0  0  0  0  0  0  0  0  0  0
    3.8153  -16.4871   27.5665 H   0  0  0  0  0  0  0  0  0  0  0  0
    5.1766  -16.6440   29.4547 H   0  0  0  0  0  0  0  0  0  0  0  0
    4.1843  -15.2851   30.0187 H   0  0  0  0  0  0  0  0  0  0  0  0
    6.9944  -15.3253   29.2980 H   0  0  0  0  0  0  0  0  0  0  0  0
    6.0816  -13.9293   29.8904 H   0  0  0  0  0  0  0  0  0  0  0  0
    7.4502  -10.7756   23.5248 H   0  0  0  0  0  0  0  0  0  0  0  0
  1  2  1  0
  2  3  1  0
  2  4  1  0
  4  5  2  0
  4  6  1  0
  2  7  1  0
  7  8  1  0
  8  9  2  0
  9 10  1  0
 10 11  1  0
 11 12  2  0
 11 13  1  0
 13 14  1  0
 14 15  1  0
 15 16  1  0
 16 17  1  0
 17 18  1  0
  9 19  1  0
 19 20  2  0
 20  7  1  0
 18 14  1  0
  1 21  1  0
  1 22  1  0
  1 23  1  0
  3 24  1  0
  3 25  1  0
  3 26  1  0
  6 27  1  0
  8 28  1  0
 10 29  1  0
 13 30  1  0
 13 31  1  0
 15 32  1  0
 15 33  1  0
 16 34  1  0
 16 35  1  0
 17 36  1  0
 17 37  1  0
 18 38  1  0
 18 39  1  0
 19 40  1  0
M  END
>  <Energy>  (1025) 
266.15124195201554

>  <compound_id>  (1025) 
8709

>  <target_id>  (1025) 
1

>  <reference_id>  (1025) 
124

>  <inspiration_ids>  (1025) 
[96, 124]

>  <energy_score>  (1025) 
158.52278244275607

>  <distance_score>  (1025) 
15.333422256709836

>  <path>  (1025) 
/opt/xchem-fragalysis-2/maxwin/BulkDock/SCRATCH/511015/C8709-P124/C8709-P124.minimised.mol

>  <scratch_subdir>  (1025) 
/opt/xchem-fragalysis-2/maxwin/BulkDock/SCRATCH/511015/C8709-P124

>  <fragmenstein_runtime>  (1025) 
40.35422968864441

>  <fragmenstein_outcome>  (1025) 
too moved

>  <fragmenstein_mode>  (1025) 
expansion

>  <fragmenstein_error>  (1025) 


$$$$
C8719-P96
     RDKit          3D

 44 45  0  0  0  0  0  0  0  0999 V2000
   12.1345  -11.1354   17.9558 C   0  0  0  0  0  0  0  0  0  0  0  0
   10.8487  -10.6669   17.5272 N   0  0  0  0  0  0  0  0  0  0  0  0
   10.4738   -9.8106   16.4357 C   0  0  0  0  0  0  0  0  0  0  0  0
   11.1299   -9.3345   15.5607 O   0  0  0  0  0  0  0  0  0  0  0  0
    8.9693   -9.5800   16.3690 C   0  0  0  0  0  0  0  0  0  0  0  0
    8.3508   -8.2912   16.7050 N   0  0  0  0  0  0  0  0  0  0  0  0
    7.1379   -7.7149   16.1666 C   0  0  0  0  0  0  0  0  0  0  0  0
    6.1594   -6.1709   16.6574 C   0  0  0  0  0  0  0  0  0  0  0  0
    5.2074   -6.9471   17.2635 N   0  0  0  0  0  0  0  0  0  0  0  0
    5.2779   -9.0216   17.5859 C   0  0  0  0  0  0  0  0  0  0  0  0
    6.1238   -9.7242   17.1882 O   0  0  0  0  0  0  0  0  0  0  0  0
    3.9880  -10.0905   18.7498 C   0  0  0  0  0  0  0  0  0  0  0  0
    2.5107  -10.3118   20.1902 C   0  0  0  0  0  0  0  0  0  0  0  0
    0.4580  -10.2154   20.6055 C   0  0  0  0  0  0  0  0  0  0  0  0
   -1.0378   -9.3182   19.8585 N   0  0  0  0  0  0  0  0  0  0  0  0
   -1.1073   -7.9324   19.3795 C   0  0  0  0  0  0  0  0  0  0  0  0
   -2.5923   -7.5397   19.4342 C   0  0  0  0  0  0  0  0  0  0  0  0
   -3.3864   -8.7867   19.1792 C   0  0  0  0  0  0  0  0  0  0  0  0
   -2.3543   -9.8887   19.2739 C   0  0  0  0  0  0  0  0  0  0  0  0
    8.0599   -6.3415   17.0664 C   0  0  0  0  0  0  0  0  0  0  0  0
    8.9470   -7.3192   17.3026 N   0  0  0  0  0  0  0  0  0  0  0  0
   12.0596  -12.2008   18.1835 H   0  0  0  0  0  0  0  0  0  0  0  0
   12.8716  -10.9634   17.1682 H   0  0  0  0  0  0  0  0  0  0  0  0
   12.4198  -10.5853   18.8554 H   0  0  0  0  0  0  0  0  0  0  0  0
   10.0422  -10.8108   18.1280 H   0  0  0  0  0  0  0  0  0  0  0  0
    8.5014  -10.2592   17.0608 H   0  0  0  0  0  0  0  0  0  0  0  0
    8.6695   -9.7993   15.3380 H   0  0  0  0  0  0  0  0  0  0  0  0
    6.8231   -8.5304   15.5020 H   0  0  0  0  0  0  0  0  0  0  0  0
    4.3268   -6.5387   17.6316 H   0  0  0  0  0  0  0  0  0  0  0  0
    4.8258  -10.7835   18.9371 H   0  0  0  0  0  0  0  0  0  0  0  0
    3.6412  -10.8903   18.0511 H   0  0  0  0  0  0  0  0  0  0  0  0
    2.6577   -9.2793   20.4035 H   0  0  0  0  0  0  0  0  0  0  0  0
    2.6703  -10.9394   21.0487 H   0  0  0  0  0  0  0  0  0  0  0  0
    0.7219  -10.1697   21.6806 H   0  0  0  0  0  0  0  0  0  0  0  0
   -0.3881  -10.7671   20.8844 H   0  0  0  0  0  0  0  0  0  0  0  0
   -0.5948   -7.1467   19.9347 H   0  0  0  0  0  0  0  0  0  0  0  0
   -0.7736   -7.8514   18.3491 H   0  0  0  0  0  0  0  0  0  0  0  0
   -2.8159   -6.7657   18.6914 H   0  0  0  0  0  0  0  0  0  0  0  0
   -2.8536   -7.1173   20.4095 H   0  0  0  0  0  0  0  0  0  0  0  0
   -3.8239   -8.7548   18.1743 H   0  0  0  0  0  0  0  0  0  0  0  0
   -4.2132   -8.8813   19.8877 H   0  0  0  0  0  0  0  0  0  0  0  0
   -2.3412  -10.3316   18.2877 H   0  0  0  0  0  0  0  0  0  0  0  0
   -2.8002  -10.7595   19.6954 H   0  0  0  0  0  0  0  0  0  0  0  0
    8.6284   -5.5435   17.5037 H   0  0  0  0  0  0  0  0  0  0  0  0
  1  2  1  0
  2  3  1  0
  3  4  2  0
  3  5  1  0
  5  6  1  0
  6  7  1  0
  7  8  2  0
  8  9  1  0
  9 10  1  0
 10 11  2  0
 10 12  1  0
 12 13  1  0
 13 14  1  0
 14 15  1  0
 15 16  1  0
 16 17  1  0
 17 18  1  0
 18 19  1  0
  8 20  1  0
 20 21  2  0
 21  6  1  0
 19 15  1  0
  1 22  1  0
  1 23  1  0
  1 24  1  0
  2 25  1  0
  5 26  1  0
  5 27  1  0
  7 28  1  0
  9 29  1  0
 12 30  1  0
 12 31  1  0
 13 32  1  0
 13 33  1  0
 14 34  1  0
 14 35  1  0
 16 36  1  0
 16 37  1  0
 17 38  1  0
 17 39  1  0
 18 40  1  0
 18 41  1  0
 19 42  1  0
 19 43  1  0
 20 44  1  0
M  END
>  <Energy>  (1026) 
952.98579803879863

>  <compound_id>  (1026) 
8719

>  <target_id>  (1026) 
1

>  <reference_id>  (1026) 
96

>  <inspiration_ids>  (1026) 
[96, 124]

>  <energy_score>  (1026) 
888.0725987890137

>  <distance_score>  (1026) 
13.872827197592304

>  <path>  (1026) 
/opt/xchem-fragalysis-2/maxwin/BulkDock/SCRATCH/511015/C8719-P96/C8719-P96.minimised.mol

>  <scratch_subdir>  (1026) 
/opt/xchem-fragalysis-2/maxwin/BulkDock/SCRATCH/511015/C8719-P96

>  <fragmenstein_runtime>  (1026) 
22.989885568618774

>  <fragmenstein_outcome>  (1026) 
too moved

>  <fragmenstein_mode>  (1026) 
expansion

>  <fragmenstein_error>  (1026) 


$$$$
C8719-P124
     RDKit          3D

 44 45  0  0  0  0  0  0  0  0999 V2000
   -1.3204   -8.0602   30.0138 C   0  0  0  0  0  0  0  0  0  0  0  0
   -2.2800   -8.5718   29.0754 N   0  0  0  0  0  0  0  0  0  0  0  0
   -2.3156   -9.8139   28.3411 C   0  0  0  0  0  0  0  0  0  0  0  0
   -1.5951  -10.7675   28.3862 O   0  0  0  0  0  0  0  0  0  0  0  0
   -3.5003   -9.7877   27.3768 C   0  0  0  0  0  0  0  0  0  0  0  0
   -3.9736  -11.1083   26.9779 N   0  0  0  0  0  0  0  0  0  0  0  0
   -4.5461  -12.0249   27.8401 C   0  0  0  0  0  0  0  0  0  0  0  0
   -5.4100  -12.8105   27.1063 C   0  0  0  0  0  0  0  0  0  0  0  0
   -6.2420  -13.7669   27.6880 N   0  0  0  0  0  0  0  0  0  0  0  0
   -7.4081  -14.4851   27.1508 C   0  0  0  0  0  0  0  0  0  0  0  0
   -7.8876  -14.4855   26.0504 O   0  0  0  0  0  0  0  0  0  0  0  0
   -8.0331  -15.3723   28.2976 C   0  0  0  0  0  0  0  0  0  0  0  0
   -9.4899  -15.9384   28.1239 C   0  0  0  0  0  0  0  0  0  0  0  0
   -9.5889  -17.5189   28.0441 C   0  0  0  0  0  0  0  0  0  0  0  0
  -10.7319  -18.3605   28.9341 N   0  0  0  0  0  0  0  0  0  0  0  0
  -11.9812  -18.2738   28.2686 C   0  0  0  0  0  0  0  0  0  0  0  0
  -12.5712  -20.0602   28.8102 C   0  0  0  0  0  0  0  0  0  0  0  0
  -11.9429  -21.0608   29.6623 C   0  0  0  0  0  0  0  0  0  0  0  0
  -10.7459  -20.2543   29.5125 C   0  0  0  0  0  0  0  0  0  0  0  0
   -5.2014  -12.3418   25.7773 C   0  0  0  0  0  0  0  0  0  0  0  0
   -4.3101  -11.3338   25.6847 N   0  0  0  0  0  0  0  0  0  0  0  0
   -0.7335   -7.2835   29.5181 H   0  0  0  0  0  0  0  0  0  0  0  0
   -1.8565   -7.6324   30.8634 H   0  0  0  0  0  0  0  0  0  0  0  0
   -0.6619   -8.8669   30.3437 H   0  0  0  0  0  0  0  0  0  0  0  0
   -3.0020   -7.9552   28.7187 H   0  0  0  0  0  0  0  0  0  0  0  0
   -3.2149   -9.2360   26.4754 H   0  0  0  0  0  0  0  0  0  0  0  0
   -4.3627   -9.2904   27.8360 H   0  0  0  0  0  0  0  0  0  0  0  0
   -4.3483  -11.9746   28.9018 H   0  0  0  0  0  0  0  0  0  0  0  0
   -6.1754  -13.9397   28.6838 H   0  0  0  0  0  0  0  0  0  0  0  0
   -7.3253  -16.1876   28.4846 H   0  0  0  0  0  0  0  0  0  0  0  0
   -8.0509  -14.7503   29.2023 H   0  0  0  0  0  0  0  0  0  0  0  0
  -10.1108  -15.5670   28.9463 H   0  0  0  0  0  0  0  0  0  0  0  0
   -9.9438  -15.5154   27.2191 H   0  0  0  0  0  0  0  0  0  0  0  0
   -9.8013  -17.6269   26.9966 H   0  0  0  0  0  0  0  0  0  0  0  0
   -8.5898  -17.9284   28.1941 H   0  0  0  0  0  0  0  0  0  0  0  0
  -11.8627  -17.2097   28.6681 H   0  0  0  0  0  0  0  0  0  0  0  0
  -12.8928  -17.8200   28.4744 H   0  0  0  0  0  0  0  0  0  0  0  0
  -12.4043  -20.7572   27.9701 H   0  0  0  0  0  0  0  0  0  0  0  0
  -13.6192  -20.0031   28.9926 H   0  0  0  0  0  0  0  0  0  0  0  0
  -11.8651  -22.0673   29.2227 H   0  0  0  0  0  0  0  0  0  0  0  0
  -12.2518  -21.2439   30.6966 H   0  0  0  0  0  0  0  0  0  0  0  0
  -10.2448  -20.9104   28.8107 H   0  0  0  0  0  0  0  0  0  0  0  0
  -10.4368  -20.4185   30.5594 H   0  0  0  0  0  0  0  0  0  0  0  0
   -5.6994  -12.6958   24.8844 H   0  0  0  0  0  0  0  0  0  0  0  0
  1  2  1  0
  2  3  1  0
  3  4  2  0
  3  5  1  0
  5  6  1  0
  6  7  1  0
  7  8  2  0
  8  9  1  0
  9 10  1  0
 10 11  2  0
 10 12  1  0
 12 13  1  0
 13 14  1  0
 14 15  1  0
 15 16  1  0
 16 17  1  0
 17 18  1  0
 18 19  1  0
  8 20  1  0
 20 21  2  0
 21  6  1  0
 19 15  1  0
  1 22  1  0
  1 23  1  0
  1 24  1  0
  2 25  1  0
  5 26  1  0
  5 27  1  0
  7 28  1  0
  9 29  1  0
 12 30  1  0
 12 31  1  0
 13 32  1  0
 13 33  1  0
 14 34  1  0
 14 35  1  0
 16 36  1  0
 16 37  1  0
 17 38  1  0
 17 39  1  0
 18 40  1  0
 18 41  1  0
 19 42  1  0
 19 43  1  0
 20 44  1  0
M  END
>  <Energy>  (1027) 
299.7769205394485

>  <compound_id>  (1027) 
8719

>  <target_id>  (1027) 
1

>  <reference_id>  (1027) 
124

>  <inspiration_ids>  (1027) 
[96, 124]

>  <energy_score>  (1027) 
234.86372128966633

>  <distance_score>  (1027) 
19.43481608920399

>  <path>  (1027) 
/opt/xchem-fragalysis-2/maxwin/BulkDock/SCRATCH/511015/C8719-P124/C8719-P124.minimised.mol

>  <scratch_subdir>  (1027) 
/opt/xchem-fragalysis-2/maxwin/BulkDock/SCRATCH/511015/C8719-P124

>  <fragmenstein_runtime>  (1027) 
48.603031635284424

>  <fragmenstein_outcome>  (1027) 
too moved

>  <fragmenstein_mode>  (1027) 
expansion

>  <fragmenstein_error>  (1027) 


$$$$
C8723-P96
     RDKit          3D

 56 58  0  0  0  0  0  0  0  0999 V2000
    3.7365  -16.8121   24.3964 O   0  0  0  0  0  0  0  0  0  0  0  0
    3.0354  -16.2324   23.6140 C   0  0  0  0  0  0  0  0  0  0  0  0
    1.0890  -17.0111   23.7078 C   0  0  0  0  0  0  0  0  0  0  0  0
   -0.3745  -17.6501   24.6686 N   0  0  0  0  0  0  0  0  0  0  0  0
   -1.0679  -18.8412   24.0812 C   0  0  0  0  0  0  0  0  0  0  0  0
   -2.2566  -19.1490   25.0040 C   0  0  0  0  0  0  0  0  0  0  0  0
   -2.0622  -18.2217   26.1873 C   0  0  0  0  0  0  0  0  0  0  0  0
   -1.3769  -17.0106   25.5439 C   0  0  0  0  0  0  0  0  0  0  0  0
    3.8215  -14.7468   22.6965 N   0  0  0  0  0  0  0  0  0  0  0  0
    5.5435  -13.8715   22.8810 C   0  0  0  0  0  0  0  0  0  0  0  0
    6.8618  -12.4285   23.8323 C   0  0  0  0  0  0  0  0  0  0  0  0
    8.3472  -11.7222   23.5593 C   0  0  0  0  0  0  0  0  0  0  0  0
    9.4740  -12.1234   24.3522 O   0  0  0  0  0  0  0  0  0  0  0  0
    6.2341  -10.7668   23.7022 N   0  0  0  0  0  0  0  0  0  0  0  0
    6.6999   -9.8162   22.5631 C   0  0  0  0  0  0  0  0  0  0  0  0
    7.6259   -8.6165   22.7843 C   0  0  0  0  0  0  0  0  0  0  0  0
    7.3284   -7.3675   23.3766 C   0  0  0  0  0  0  0  0  0  0  0  0
    8.3486   -6.5216   22.9983 C   0  0  0  0  0  0  0  0  0  0  0  0
    9.2074   -7.2643   22.2436 N   0  0  0  0  0  0  0  0  0  0  0  0
   10.3436   -6.7979   21.4690 C   0  0  0  0  0  0  0  0  0  0  0  0
   10.9525   -5.4678   21.9141 C   0  0  0  0  0  0  0  0  0  0  0  0
   12.2806   -5.4304   21.1740 C   0  0  0  0  0  0  0  0  0  0  0  0
   12.7544   -6.8804   21.1252 C   0  0  0  0  0  0  0  0  0  0  0  0
   11.5517   -7.7397   21.5131 C   0  0  0  0  0  0  0  0  0  0  0  0
    8.8020   -8.5485   22.1210 N   0  0  0  0  0  0  0  0  0  0  0  0
    0.6385  -17.8014   23.1083 H   0  0  0  0  0  0  0  0  0  0  0  0
    1.0245  -16.8944   24.7785 H   0  0  0  0  0  0  0  0  0  0  0  0
   -1.4239  -18.6593   23.0630 H   0  0  0  0  0  0  0  0  0  0  0  0
   -0.4271  -19.7234   24.0660 H   0  0  0  0  0  0  0  0  0  0  0  0
   -2.2874  -20.1987   25.3113 H   0  0  0  0  0  0  0  0  0  0  0  0
   -3.1961  -18.9120   24.4908 H   0  0  0  0  0  0  0  0  0  0  0  0
   -3.0111  -17.9601   26.6653 H   0  0  0  0  0  0  0  0  0  0  0  0
   -1.4154  -18.6886   26.9390 H   0  0  0  0  0  0  0  0  0  0  0  0
   -2.2041  -16.4948   25.0491 H   0  0  0  0  0  0  0  0  0  0  0  0
   -0.9906  -16.3141   26.2886 H   0  0  0  0  0  0  0  0  0  0  0  0
    3.1526  -14.4056   21.9999 H   0  0  0  0  0  0  0  0  0  0  0  0
    6.0993  -14.4189   22.1274 H   0  0  0  0  0  0  0  0  0  0  0  0
    4.7193  -13.1306   22.7256 H   0  0  0  0  0  0  0  0  0  0  0  0
    7.2977  -12.7664   24.7728 H   0  0  0  0  0  0  0  0  0  0  0  0
    8.5806  -11.5150   22.5196 H   0  0  0  0  0  0  0  0  0  0  0  0
    8.3270  -10.7263   24.0085 H   0  0  0  0  0  0  0  0  0  0  0  0
   10.1674  -11.4536   24.2143 H   0  0  0  0  0  0  0  0  0  0  0  0
    6.5117  -10.3215   24.5813 H   0  0  0  0  0  0  0  0  0  0  0  0
    5.7777   -9.3957   22.1543 H   0  0  0  0  0  0  0  0  0  0  0  0
    7.1611  -10.3620   21.7525 H   0  0  0  0  0  0  0  0  0  0  0  0
    6.4425   -7.0972   23.9357 H   0  0  0  0  0  0  0  0  0  0  0  0
    8.5028   -5.4684   23.1908 H   0  0  0  0  0  0  0  0  0  0  0  0
    9.9870   -6.7060   20.4348 H   0  0  0  0  0  0  0  0  0  0  0  0
   11.1245   -5.4533   22.9977 H   0  0  0  0  0  0  0  0  0  0  0  0
   10.3222   -4.6099   21.6593 H   0  0  0  0  0  0  0  0  0  0  0  0
   12.1283   -5.0581   20.1537 H   0  0  0  0  0  0  0  0  0  0  0  0
   13.0070   -4.7735   21.6617 H   0  0  0  0  0  0  0  0  0  0  0  0
   13.1152   -7.1320   20.1220 H   0  0  0  0  0  0  0  0  0  0  0  0
   13.5826   -7.0487   21.8223 H   0  0  0  0  0  0  0  0  0  0  0  0
   11.4316   -8.5934   20.8375 H   0  0  0  0  0  0  0  0  0  0  0  0
   11.6988   -8.1424   22.5235 H   0  0  0  0  0  0  0  0  0  0  0  0
  1  2  2  0
  2  3  1  0
  3  4  1  0
  4  5  1  0
  5  6  1  0
  6  7  1  0
  7  8  1  0
  2  9  1  0
  9 10  1  0
 10 11  1  0
 11 12  1  0
 12 13  1  0
 11 14  1  0
 14 15  1  0
 15 16  1  0
 16 17  1  0
 17 18  2  0
 18 19  1  0
 19 20  1  0
 20 21  1  0
 21 22  1  0
 22 23  1  0
 23 24  1  0
 19 25  1  0
  8  4  1  0
 25 16  2  0
 24 20  1  0
  3 26  1  0
  3 27  1  0
  5 28  1  0
  5 29  1  0
  6 30  1  0
  6 31  1  0
  7 32  1  0
  7 33  1  0
  8 34  1  0
  8 35  1  0
  9 36  1  0
 10 37  1  0
 10 38  1  0
 11 39  1  0
 12 40  1  0
 12 41  1  0
 13 42  1  0
 14 43  1  0
 15 44  1  0
 15 45  1  0
 17 46  1  0
 18 47  1  0
 20 48  1  0
 21 49  1  0
 21 50  1  0
 22 51  1  0
 22 52  1  0
 23 53  1  0
 23 54  1  0
 24 55  1  0
 24 56  1  0
M  END
>  <Energy>  (1028) 
806.03501220139162

>  <compound_id>  (1028) 
8723

>  <target_id>  (1028) 
1

>  <reference_id>  (1028) 
96

>  <inspiration_ids>  (1028) 
[96, 124]

>  <energy_score>  (1028) 
666.8359776878403

>  <distance_score>  (1028) 
12.8356954310369

>  <path>  (1028) 
/opt/xchem-fragalysis-2/maxwin/BulkDock/SCRATCH/511015/C8723-P96/C8723-P96.minimised.mol

>  <scratch_subdir>  (1028) 
/opt/xchem-fragalysis-2/maxwin/BulkDock/SCRATCH/511015/C8723-P96

>  <fragmenstein_runtime>  (1028) 
31.991204738616943

>  <fragmenstein_outcome>  (1028) 
too moved

>  <fragmenstein_mode>  (1028) 
expansion

>  <fragmenstein_error>  (1028) 


$$$$
C8723-P124
     RDKit          3D

 56 58  0  0  0  0  0  0  0  0999 V2000
    3.6808  -12.5760   21.6127 O   0  0  0  0  0  0  0  0  0  0  0  0
    3.6941  -13.2154   20.5688 C   0  0  0  0  0  0  0  0  0  0  0  0
    2.2596  -14.7403   20.0826 C   0  0  0  0  0  0  0  0  0  0  0  0
    0.6291  -15.9786   20.4609 N   0  0  0  0  0  0  0  0  0  0  0  0
   -1.1952  -15.9129   19.8290 C   0  0  0  0  0  0  0  0  0  0  0  0
   -2.0076  -17.2106   19.6720 C   0  0  0  0  0  0  0  0  0  0  0  0
   -1.2269  -18.1748   20.4480 C   0  0  0  0  0  0  0  0  0  0  0  0
    0.1855  -17.5781   20.3690 C   0  0  0  0  0  0  0  0  0  0  0  0
    4.7948  -12.9301   19.2038 N   0  0  0  0  0  0  0  0  0  0  0  0
    6.2098  -11.4544   18.8546 C   0  0  0  0  0  0  0  0  0  0  0  0
    7.7820  -10.6246   17.5160 C   0  0  0  0  0  0  0  0  0  0  0  0
    9.3683  -11.2802   17.2909 C   0  0  0  0  0  0  0  0  0  0  0  0
    9.5365  -12.1817   16.1967 O   0  0  0  0  0  0  0  0  0  0  0  0
    8.0653   -9.7058   15.6702 N   0  0  0  0  0  0  0  0  0  0  0  0
    7.4493   -7.8497   14.7313 C   0  0  0  0  0  0  0  0  0  0  0  0
    9.5223   -7.3866   15.2030 C   0  0  0  0  0  0  0  0  0  0  0  0
   10.9417   -6.3378   15.1760 C   0  0  0  0  0  0  0  0  0  0  0  0
   10.7198   -4.7310   14.8148 C   0  0  0  0  0  0  0  0  0  0  0  0
   11.3077   -4.9864   16.0655 N   0  0  0  0  0  0  0  0  0  0  0  0
   12.3607   -4.1334   16.6508 C   0  0  0  0  0  0  0  0  0  0  0  0
   12.4138   -2.7064   16.0458 C   0  0  0  0  0  0  0  0  0  0  0  0
   13.7803   -2.1327   16.4387 C   0  0  0  0  0  0  0  0  0  0  0  0
   14.7070   -3.2573   16.1521 C   0  0  0  0  0  0  0  0  0  0  0  0
   13.8578   -4.4451   16.5733 C   0  0  0  0  0  0  0  0  0  0  0  0
   10.8027   -6.6370   16.2692 N   0  0  0  0  0  0  0  0  0  0  0  0
    2.5300  -15.0241   21.0031 H   0  0  0  0  0  0  0  0  0  0  0  0
    2.5667  -15.0141   19.0505 H   0  0  0  0  0  0  0  0  0  0  0  0
   -1.8642  -15.2143   20.3422 H   0  0  0  0  0  0  0  0  0  0  0  0
   -1.3502  -15.3284   18.9011 H   0  0  0  0  0  0  0  0  0  0  0  0
   -2.0658  -17.5224   18.6257 H   0  0  0  0  0  0  0  0  0  0  0  0
   -3.0389  -17.1166   20.0273 H   0  0  0  0  0  0  0  0  0  0  0  0
   -1.5835  -18.3437   21.4616 H   0  0  0  0  0  0  0  0  0  0  0  0
   -1.2517  -19.1666   19.9777 H   0  0  0  0  0  0  0  0  0  0  0  0
    0.5823  -18.1732   21.1714 H   0  0  0  0  0  0  0  0  0  0  0  0
    0.4206  -17.9009   19.3385 H   0  0  0  0  0  0  0  0  0  0  0  0
    4.6478  -13.6392   18.5271 H   0  0  0  0  0  0  0  0  0  0  0  0
    5.6541  -10.5781   18.8365 H   0  0  0  0  0  0  0  0  0  0  0  0
    6.6837  -11.5156   19.8245 H   0  0  0  0  0  0  0  0  0  0  0  0
    8.3075  -10.0100   18.2870 H   0  0  0  0  0  0  0  0  0  0  0  0
   10.0462  -10.4922   16.9827 H   0  0  0  0  0  0  0  0  0  0  0  0
    9.8367  -11.5980   18.2310 H   0  0  0  0  0  0  0  0  0  0  0  0
    9.1947  -11.6903   15.4214 H   0  0  0  0  0  0  0  0  0  0  0  0
    9.0776   -9.5551   15.6655 H   0  0  0  0  0  0  0  0  0  0  0  0
    6.9738   -8.0440   13.7133 H   0  0  0  0  0  0  0  0  0  0  0  0
    6.7404   -7.2929   15.4148 H   0  0  0  0  0  0  0  0  0  0  0  0
   12.2067   -6.8267   15.5346 H   0  0  0  0  0  0  0  0  0  0  0  0
   11.2382   -4.0060   14.2040 H   0  0  0  0  0  0  0  0  0  0  0  0
   12.1368   -4.0812   17.7066 H   0  0  0  0  0  0  0  0  0  0  0  0
   11.5534   -2.1167   16.3477 H   0  0  0  0  0  0  0  0  0  0  0  0
   12.4108   -2.7029   14.9517 H   0  0  0  0  0  0  0  0  0  0  0  0
   14.0418   -1.2318   15.8753 H   0  0  0  0  0  0  0  0  0  0  0  0
   13.8591   -1.9330   17.5124 H   0  0  0  0  0  0  0  0  0  0  0  0
   14.9907   -3.2667   15.1005 H   0  0  0  0  0  0  0  0  0  0  0  0
   15.6380   -3.1923   16.7254 H   0  0  0  0  0  0  0  0  0  0  0  0
   14.1935   -4.6254   17.5973 H   0  0  0  0  0  0  0  0  0  0  0  0
   14.0586   -5.2561   15.9015 H   0  0  0  0  0  0  0  0  0  0  0  0
  1  2  2  0
  2  3  1  0
  3  4  1  0
  4  5  1  0
  5  6  1  0
  6  7  1  0
  7  8  1  0
  2  9  1  0
  9 10  1  0
 10 11  1  0
 11 12  1  0
 12 13  1  0
 11 14  1  0
 14 15  1  0
 15 16  1  0
 16 17  1  0
 17 18  2  0
 18 19  1  0
 19 20  1  0
 20 21  1  0
 21 22  1  0
 22 23  1  0
 23 24  1  0
 19 25  1  0
  8  4  1  0
 25 16  2  0
 24 20  1  0
  3 26  1  0
  3 27  1  0
  5 28  1  0
  5 29  1  0
  6 30  1  0
  6 31  1  0
  7 32  1  0
  7 33  1  0
  8 34  1  0
  8 35  1  0
  9 36  1  0
 10 37  1  0
 10 38  1  0
 11 39  1  0
 12 40  1  0
 12 41  1  0
 13 42  1  0
 14 43  1  0
 15 44  1  0
 15 45  1  0
 17 46  1  0
 18 47  1  0
 20 48  1  0
 21 49  1  0
 21 50  1  0
 22 51  1  0
 22 52  1  0
 23 53  1  0
 23 54  1  0
 24 55  1  0
 24 56  1  0
M  END
>  <Energy>  (1029) 
1890.8251873390859

>  <compound_id>  (1029) 
8723

>  <target_id>  (1029) 
1

>  <reference_id>  (1029) 
124

>  <inspiration_ids>  (1029) 
[96, 124]

>  <energy_score>  (1029) 
1751.6261528255804

>  <distance_score>  (1029) 
11.772980526107514

>  <path>  (1029) 
/opt/xchem-fragalysis-2/maxwin/BulkDock/SCRATCH/511015/C8723-P124/C8723-P124.minimised.mol

>  <scratch_subdir>  (1029) 
/opt/xchem-fragalysis-2/maxwin/BulkDock/SCRATCH/511015/C8723-P124

>  <fragmenstein_runtime>  (1029) 
41.27463889122009

>  <fragmenstein_outcome>  (1029) 
too moved

>  <fragmenstein_mode>  (1029) 
expansion

>  <fragmenstein_error>  (1029) 


$$$$
C8724-P96
     RDKit          3D

 50 52  0  0  0  0  0  0  0  0999 V2000
    3.3825  -11.0424   19.0284 C   0  0  0  0  0  0  0  0  0  0  0  0
    2.7805  -10.4087   20.6251 C   0  0  0  0  0  0  0  0  0  0  0  0
    1.5314  -11.3662   21.9748 C   0  0  0  0  0  0  0  0  0  0  0  0
   -0.1221  -12.6060   22.5576 C   0  0  0  0  0  0  0  0  0  0  0  0
   -1.8647  -12.9246   23.4757 N   0  0  0  0  0  0  0  0  0  0  0  0
   -3.0564  -12.0741   24.1051 C   0  0  0  0  0  0  0  0  0  0  0  0
   -3.6777  -12.8784   25.2823 C   0  0  0  0  0  0  0  0  0  0  0  0
   -4.1109  -14.0912   24.5640 C   0  0  0  0  0  0  0  0  0  0  0  0
   -3.0120  -14.1990   23.4759 C   0  0  0  0  0  0  0  0  0  0  0  0
    4.3047   -9.1117   20.8862 N   0  0  0  0  0  0  0  0  0  0  0  0
    5.6012   -9.1894   21.8588 C   0  0  0  0  0  0  0  0  0  0  0  0
    5.9793  -10.0850   22.5800 O   0  0  0  0  0  0  0  0  0  0  0  0
    6.5136   -7.9226   22.0544 C   0  0  0  0  0  0  0  0  0  0  0  0
    6.2042   -6.5867   22.4637 C   0  0  0  0  0  0  0  0  0  0  0  0
    7.4017   -5.9088   22.5785 C   0  0  0  0  0  0  0  0  0  0  0  0
    8.3774   -6.8145   22.2846 N   0  0  0  0  0  0  0  0  0  0  0  0
    9.8031   -6.5406   22.1739 C   0  0  0  0  0  0  0  0  0  0  0  0
   10.2550   -6.0449   20.7874 C   0  0  0  0  0  0  0  0  0  0  0  0
   11.6887   -6.5381   20.5931 C   0  0  0  0  0  0  0  0  0  0  0  0
   12.0623   -7.2454   21.8910 C   0  0  0  0  0  0  0  0  0  0  0  0
   10.7315   -7.7258   22.4514 C   0  0  0  0  0  0  0  0  0  0  0  0
    7.8761   -8.0418   22.0507 N   0  0  0  0  0  0  0  0  0  0  0  0
    4.3020  -11.6307   18.8856 H   0  0  0  0  0  0  0  0  0  0  0  0
    3.8946  -10.2457   18.5009 H   0  0  0  0  0  0  0  0  0  0  0  0
    2.7053  -11.7451   18.6373 H   0  0  0  0  0  0  0  0  0  0  0  0
    2.1965   -9.5410   20.5451 H   0  0  0  0  0  0  0  0  0  0  0  0
    1.1603  -10.4510   22.3858 H   0  0  0  0  0  0  0  0  0  0  0  0
    2.3917  -11.7762   22.4984 H   0  0  0  0  0  0  0  0  0  0  0  0
    0.1177  -12.1003   23.5197 H   0  0  0  0  0  0  0  0  0  0  0  0
   -0.8292  -12.5925   21.7216 H   0  0  0  0  0  0  0  0  0  0  0  0
   -2.9388  -11.0026   24.0587 H   0  0  0  0  0  0  0  0  0  0  0  0
   -4.0013  -12.0123   23.5278 H   0  0  0  0  0  0  0  0  0  0  0  0
   -2.9537  -13.1273   26.0664 H   0  0  0  0  0  0  0  0  0  0  0  0
   -4.5365  -12.3714   25.7369 H   0  0  0  0  0  0  0  0  0  0  0  0
   -5.0976  -13.9626   24.1027 H   0  0  0  0  0  0  0  0  0  0  0  0
   -4.1594  -14.9613   25.2281 H   0  0  0  0  0  0  0  0  0  0  0  0
   -2.6987  -15.1751   23.8164 H   0  0  0  0  0  0  0  0  0  0  0  0
   -3.5746  -14.2200   22.5572 H   0  0  0  0  0  0  0  0  0  0  0  0
    4.2370   -8.2094   20.4979 H   0  0  0  0  0  0  0  0  0  0  0  0
    5.2229   -6.1730   22.6459 H   0  0  0  0  0  0  0  0  0  0  0  0
    7.6265   -4.8858   22.8488 H   0  0  0  0  0  0  0  0  0  0  0  0
   10.0173   -5.7562   22.9135 H   0  0  0  0  0  0  0  0  0  0  0  0
    9.6342   -6.4463   19.9830 H   0  0  0  0  0  0  0  0  0  0  0  0
   10.2109   -4.9531   20.7383 H   0  0  0  0  0  0  0  0  0  0  0  0
   12.3787   -5.7196   20.3659 H   0  0  0  0  0  0  0  0  0  0  0  0
   11.7258   -7.2437   19.7546 H   0  0  0  0  0  0  0  0  0  0  0  0
   12.5266   -6.5335   22.5840 H   0  0  0  0  0  0  0  0  0  0  0  0
   12.7666   -8.0662   21.7274 H   0  0  0  0  0  0  0  0  0  0  0  0
   10.4122   -8.6299   21.9191 H   0  0  0  0  0  0  0  0  0  0  0  0
   10.7928   -7.9637   23.5179 H   0  0  0  0  0  0  0  0  0  0  0  0
  1  2  1  0
  2  3  1  0
  3  4  1  0
  4  5  1  0
  5  6  1  0
  6  7  1  0
  7  8  1  0
  8  9  1  0
  2 10  1  0
 10 11  1  0
 11 12  2  0
 11 13  1  0
 13 14  1  0
 14 15  2  0
 15 16  1  0
 16 17  1  0
 17 18  1  0
 18 19  1  0
 19 20  1  0
 20 21  1  0
 16 22  1  0
  9  5  1  0
 22 13  2  0
 21 17  1  0
  1 23  1  0
  1 24  1  0
  1 25  1  0
  2 26  1  0
  3 27  1  0
  3 28  1  0
  4 29  1  0
  4 30  1  0
  6 31  1  0
  6 32  1  0
  7 33  1  0
  7 34  1  0
  8 35  1  0
  8 36  1  0
  9 37  1  0
  9 38  1  0
 10 39  1  0
 14 40  1  0
 15 41  1  0
 17 42  1  0
 18 43  1  0
 18 44  1  0
 19 45  1  0
 19 46  1  0
 20 47  1  0
 20 48  1  0
 21 49  1  0
 21 50  1  0
M  END
>  <Energy>  (1030) 
676.13018658748081

>  <compound_id>  (1030) 
8724

>  <target_id>  (1030) 
1

>  <reference_id>  (1030) 
96

>  <inspiration_ids>  (1030) 
[96, 124]

>  <energy_score>  (1030) 
609.9114974726548

>  <distance_score>  (1030) 
12.560011882308899

>  <path>  (1030) 
/opt/xchem-fragalysis-2/maxwin/BulkDock/SCRATCH/511015/C8724-P96/C8724-P96.minimised.mol

>  <scratch_subdir>  (1030) 
/opt/xchem-fragalysis-2/maxwin/BulkDock/SCRATCH/511015/C8724-P96

>  <fragmenstein_runtime>  (1030) 
46.76952505111694

>  <fragmenstein_outcome>  (1030) 
too moved

>  <fragmenstein_mode>  (1030) 
expansion

>  <fragmenstein_error>  (1030) 


$$$$
C8724-P124
     RDKit          3D

 50 52  0  0  0  0  0  0  0  0999 V2000
    5.9542  -12.7385   20.4334 C   0  0  0  0  0  0  0  0  0  0  0  0
    5.1275  -11.6124   20.8851 C   0  0  0  0  0  0  0  0  0  0  0  0
    3.5519  -12.0850   22.2790 C   0  0  0  0  0  0  0  0  0  0  0  0
    2.2838  -13.1090   23.6559 C   0  0  0  0  0  0  0  0  0  0  0  0
    0.5227  -14.1427   23.9702 N   0  0  0  0  0  0  0  0  0  0  0  0
   -1.0529  -13.7552   25.1247 C   0  0  0  0  0  0  0  0  0  0  0  0
   -2.4237  -14.5816   25.6154 C   0  0  0  0  0  0  0  0  0  0  0  0
   -2.6246  -15.3683   24.3995 C   0  0  0  0  0  0  0  0  0  0  0  0
   -1.0639  -14.7357   23.4664 C   0  0  0  0  0  0  0  0  0  0  0  0
    6.3168  -10.3465   19.7837 N   0  0  0  0  0  0  0  0  0  0  0  0
    6.6739   -8.3206   19.9918 C   0  0  0  0  0  0  0  0  0  0  0  0
    6.1996   -7.5417   20.7134 O   0  0  0  0  0  0  0  0  0  0  0  0
    7.6171   -7.8216   19.3579 C   0  0  0  0  0  0  0  0  0  0  0  0
    8.6824   -9.4527   19.0019 C   0  0  0  0  0  0  0  0  0  0  0  0
    9.9243   -9.7502   19.6461 C   0  0  0  0  0  0  0  0  0  0  0  0
   10.0374   -8.7155   20.5148 N   0  0  0  0  0  0  0  0  0  0  0  0
   10.8795   -8.5782   21.7458 C   0  0  0  0  0  0  0  0  0  0  0  0
   10.3092   -7.8086   22.9745 C   0  0  0  0  0  0  0  0  0  0  0  0
   11.4685   -7.2182   23.7728 C   0  0  0  0  0  0  0  0  0  0  0  0
   12.6932   -7.8887   23.2154 C   0  0  0  0  0  0  0  0  0  0  0  0
   12.3253   -8.0441   21.7492 C   0  0  0  0  0  0  0  0  0  0  0  0
    9.2539   -7.7493   20.0357 N   0  0  0  0  0  0  0  0  0  0  0  0
    5.9768  -12.6893   19.3590 H   0  0  0  0  0  0  0  0  0  0  0  0
    5.4011  -13.6108   20.6099 H   0  0  0  0  0  0  0  0  0  0  0  0
    6.9453  -12.7373   20.8497 H   0  0  0  0  0  0  0  0  0  0  0  0
    4.4970  -12.0745   20.1171 H   0  0  0  0  0  0  0  0  0  0  0  0
    4.1214  -12.1821   23.1090 H   0  0  0  0  0  0  0  0  0  0  0  0
    3.3785  -11.0632   22.5825 H   0  0  0  0  0  0  0  0  0  0  0  0
    2.0249  -12.2658   24.2667 H   0  0  0  0  0  0  0  0  0  0  0  0
    3.0602  -13.7348   24.0919 H   0  0  0  0  0  0  0  0  0  0  0  0
   -0.2734  -13.4313   25.7789 H   0  0  0  0  0  0  0  0  0  0  0  0
   -1.6788  -12.8656   25.2323 H   0  0  0  0  0  0  0  0  0  0  0  0
   -3.2981  -13.9135   25.6971 H   0  0  0  0  0  0  0  0  0  0  0  0
   -2.3863  -15.1142   26.5702 H   0  0  0  0  0  0  0  0  0  0  0  0
   -2.7181  -16.3937   24.7615 H   0  0  0  0  0  0  0  0  0  0  0  0
   -3.5690  -15.1541   23.8868 H   0  0  0  0  0  0  0  0  0  0  0  0
   -0.8865  -14.9677   22.4189 H   0  0  0  0  0  0  0  0  0  0  0  0
   -0.9866  -15.4911   24.1981 H   0  0  0  0  0  0  0  0  0  0  0  0
    6.8184  -10.7495   19.0213 H   0  0  0  0  0  0  0  0  0  0  0  0
    8.3596  -10.1976   18.2821 H   0  0  0  0  0  0  0  0  0  0  0  0
   10.5885  -10.6076   19.5823 H   0  0  0  0  0  0  0  0  0  0  0  0
   10.9897   -9.6211   22.0795 H   0  0  0  0  0  0  0  0  0  0  0  0
    9.6566   -6.9838   22.7197 H   0  0  0  0  0  0  0  0  0  0  0  0
    9.7453   -8.4956   23.6173 H   0  0  0  0  0  0  0  0  0  0  0  0
   11.5272   -6.1356   23.6138 H   0  0  0  0  0  0  0  0  0  0  0  0
   11.3569   -7.3860   24.8484 H   0  0  0  0  0  0  0  0  0  0  0  0
   13.5995   -7.2936   23.3586 H   0  0  0  0  0  0  0  0  0  0  0  0
   12.8458   -8.8692   23.6813 H   0  0  0  0  0  0  0  0  0  0  0  0
   12.3750   -7.0561   21.2809 H   0  0  0  0  0  0  0  0  0  0  0  0
   13.0446   -8.7378   21.3089 H   0  0  0  0  0  0  0  0  0  0  0  0
  1  2  1  0
  2  3  1  0
  3  4  1  0
  4  5  1  0
  5  6  1  0
  6  7  1  0
  7  8  1  0
  8  9  1  0
  2 10  1  0
 10 11  1  0
 11 12  2  0
 11 13  1  0
 13 14  1  0
 14 15  2  0
 15 16  1  0
 16 17  1  0
 17 18  1  0
 18 19  1  0
 19 20  1  0
 20 21  1  0
 16 22  1  0
  9  5  1  0
 22 13  2  0
 21 17  1  0
  1 23  1  0
  1 24  1  0
  1 25  1  0
  2 26  1  0
  3 27  1  0
  3 28  1  0
  4 29  1  0
  4 30  1  0
  6 31  1  0
  6 32  1  0
  7 33  1  0
  7 34  1  0
  8 35  1  0
  8 36  1  0
  9 37  1  0
  9 38  1  0
 10 39  1  0
 14 40  1  0
 15 41  1  0
 17 42  1  0
 18 43  1  0
 18 44  1  0
 19 45  1  0
 19 46  1  0
 20 47  1  0
 20 48  1  0
 21 49  1  0
 21 50  1  0
M  END
>  <Energy>  (1031) 
1465.6800933642623

>  <compound_id>  (1031) 
8724

>  <target_id>  (1031) 
1

>  <reference_id>  (1031) 
124

>  <inspiration_ids>  (1031) 
[96, 124]

>  <energy_score>  (1031) 
1399.4614042494663

>  <distance_score>  (1031) 
12.393077925289298

>  <path>  (1031) 
/opt/xchem-fragalysis-2/maxwin/BulkDock/SCRATCH/511015/C8724-P124/C8724-P124.minimised.mol

>  <scratch_subdir>  (1031) 
/opt/xchem-fragalysis-2/maxwin/BulkDock/SCRATCH/511015/C8724-P124

>  <fragmenstein_runtime>  (1031) 
44.38915395736694

>  <fragmenstein_outcome>  (1031) 
too moved

>  <fragmenstein_mode>  (1031) 
expansion

>  <fragmenstein_error>  (1031) 


$$$$
C8725-P96
     RDKit          3D

 45 47  0  0  0  0  0  0  0  0999 V2000
   10.0050   -7.7445   23.7467 C   0  0  0  0  0  0  0  0  0  0  0  0
    9.0181   -6.5922   23.5379 C   0  0  0  0  0  0  0  0  0  0  0  0
    9.7810   -5.4585   23.0669 O   0  0  0  0  0  0  0  0  0  0  0  0
    9.9962   -5.4258   21.7083 C   0  0  0  0  0  0  0  0  0  0  0  0
    9.4404   -6.2119   20.9403 O   0  0  0  0  0  0  0  0  0  0  0  0
   10.8881   -4.3329   21.2545 C   0  0  0  0  0  0  0  0  0  0  0  0
   11.5094   -3.3209   22.0278 C   0  0  0  0  0  0  0  0  0  0  0  0
   12.0796   -2.4536   21.1240 C   0  0  0  0  0  0  0  0  0  0  0  0
   11.7891   -2.9455   19.8823 N   0  0  0  0  0  0  0  0  0  0  0  0
   11.8833   -2.2165   18.6271 C   0  0  0  0  0  0  0  0  0  0  0  0
   11.8811   -3.0706   17.3604 C   0  0  0  0  0  0  0  0  0  0  0  0
   12.3313   -2.1117   16.2689 C   0  0  0  0  0  0  0  0  0  0  0  0
   13.2533   -1.1091   16.9595 C   0  0  0  0  0  0  0  0  0  0  0  0
   13.1729   -1.4100   18.4550 C   0  0  0  0  0  0  0  0  0  0  0  0
   11.1787   -4.1495   19.9465 N   0  0  0  0  0  0  0  0  0  0  0  0
    8.2046   -6.3117   24.8418 C   0  0  0  0  0  0  0  0  0  0  0  0
    8.1094   -5.1974   25.3375 O   0  0  0  0  0  0  0  0  0  0  0  0
    7.7008   -7.4799   25.4056 N   0  0  0  0  0  0  0  0  0  0  0  0
    6.0166   -7.6920   24.7589 C   0  0  0  0  0  0  0  0  0  0  0  0
    4.8342   -7.1193   25.6468 C   0  0  0  0  0  0  0  0  0  0  0  0
    5.3328   -8.1195   26.5376 C   0  0  0  0  0  0  0  0  0  0  0  0
    6.4339   -8.2371   25.3551 C   0  0  0  0  0  0  0  0  0  0  0  0
   10.6996   -7.5112   24.5617 H   0  0  0  0  0  0  0  0  0  0  0  0
    9.4966   -8.6824   23.9902 H   0  0  0  0  0  0  0  0  0  0  0  0
   10.6117   -7.9146   22.8512 H   0  0  0  0  0  0  0  0  0  0  0  0
    8.2636   -6.8761   22.7930 H   0  0  0  0  0  0  0  0  0  0  0  0
   11.4813   -3.2039   23.1027 H   0  0  0  0  0  0  0  0  0  0  0  0
   12.5937   -1.5125   21.2616 H   0  0  0  0  0  0  0  0  0  0  0  0
   11.0188   -1.5399   18.6120 H   0  0  0  0  0  0  0  0  0  0  0  0
   12.5933   -3.9002   17.4508 H   0  0  0  0  0  0  0  0  0  0  0  0
   10.8966   -3.4894   17.1403 H   0  0  0  0  0  0  0  0  0  0  0  0
   12.8315   -2.6346   15.4481 H   0  0  0  0  0  0  0  0  0  0  0  0
   11.4656   -1.5873   15.8476 H   0  0  0  0  0  0  0  0  0  0  0  0
   14.2840   -1.1962   16.6000 H   0  0  0  0  0  0  0  0  0  0  0  0
   12.9188   -0.0867   16.7504 H   0  0  0  0  0  0  0  0  0  0  0  0
   13.1737   -0.4905   19.0495 H   0  0  0  0  0  0  0  0  0  0  0  0
   14.0457   -2.0008   18.7611 H   0  0  0  0  0  0  0  0  0  0  0  0
    6.0527   -6.7029   24.1396 H   0  0  0  0  0  0  0  0  0  0  0  0
    5.8145   -8.1669   23.6590 H   0  0  0  0  0  0  0  0  0  0  0  0
    4.9965   -6.0882   25.9758 H   0  0  0  0  0  0  0  0  0  0  0  0
    3.8341   -7.2788   25.2535 H   0  0  0  0  0  0  0  0  0  0  0  0
    5.7244   -7.7501   27.4896 H   0  0  0  0  0  0  0  0  0  0  0  0
    4.6972   -9.0025   26.6327 H   0  0  0  0  0  0  0  0  0  0  0  0
    6.5708   -9.3739   24.8584 H   0  0  0  0  0  0  0  0  0  0  0  0
    6.9881   -8.8674   26.1594 H   0  0  0  0  0  0  0  0  0  0  0  0
  1  2  1  0
  2  3  1  0
  3  4  1  0
  4  5  2  0
  4  6  1  0
  6  7  1  0
  7  8  2  0
  8  9  1  0
  9 10  1  0
 10 11  1  0
 11 12  1  0
 12 13  1  0
 13 14  1  0
  9 15  1  0
  2 16  1  0
 16 17  2  0
 16 18  1  0
 18 19  1  0
 19 20  1  0
 20 21  1  0
 21 22  1  0
 15  6  2  0
 22 18  1  0
 14 10  1  0
  1 23  1  0
  1 24  1  0
  1 25  1  0
  2 26  1  0
  7 27  1  0
  8 28  1  0
 10 29  1  0
 11 30  1  0
 11 31  1  0
 12 32  1  0
 12 33  1  0
 13 34  1  0
 13 35  1  0
 14 36  1  0
 14 37  1  0
 19 38  1  0
 19 39  1  0
 20 40  1  0
 20 41  1  0
 21 42  1  0
 21 43  1  0
 22 44  1  0
 22 45  1  0
M  END
>  <Energy>  (1032) 
608.0536851990895

>  <compound_id>  (1032) 
8725

>  <target_id>  (1032) 
1

>  <reference_id>  (1032) 
96

>  <inspiration_ids>  (1032) 
[96, 124]

>  <energy_score>  (1032) 
507.67523601592234

>  <distance_score>  (1032) 
15.865999375237678

>  <path>  (1032) 
/opt/xchem-fragalysis-2/maxwin/BulkDock/SCRATCH/511015/C8725-P96/C8725-P96.minimised.mol

>  <scratch_subdir>  (1032) 
/opt/xchem-fragalysis-2/maxwin/BulkDock/SCRATCH/511015/C8725-P96

>  <fragmenstein_runtime>  (1032) 
42.70726823806763

>  <fragmenstein_outcome>  (1032) 
too moved

>  <fragmenstein_mode>  (1032) 
expansion

>  <fragmenstein_error>  (1032) 


$$$$
C8725-P124
     RDKit          3D

 45 47  0  0  0  0  0  0  0  0999 V2000
   10.8598  -20.2775   18.5657 C   0  0  0  0  0  0  0  0  0  0  0  0
   10.3701  -19.2602   19.6133 C   0  0  0  0  0  0  0  0  0  0  0  0
   11.0760  -17.9759   19.5378 O   0  0  0  0  0  0  0  0  0  0  0  0
   11.1476  -17.3613   18.3116 C   0  0  0  0  0  0  0  0  0  0  0  0
   10.7088  -17.8754   17.2859 O   0  0  0  0  0  0  0  0  0  0  0  0
   11.7164  -15.9838   18.3022 C   0  0  0  0  0  0  0  0  0  0  0  0
   12.1174  -15.1045   19.3509 C   0  0  0  0  0  0  0  0  0  0  0  0
   12.4344  -13.8994   18.7483 C   0  0  0  0  0  0  0  0  0  0  0  0
   12.2288  -14.0945   17.4191 N   0  0  0  0  0  0  0  0  0  0  0  0
   12.1798  -13.1528   16.3342 C   0  0  0  0  0  0  0  0  0  0  0  0
   13.2662  -12.1021   16.2509 C   0  0  0  0  0  0  0  0  0  0  0  0
   12.6842  -11.1757   15.2010 C   0  0  0  0  0  0  0  0  0  0  0  0
   11.1623  -11.2336   15.3623 C   0  0  0  0  0  0  0  0  0  0  0  0
   10.8897  -12.3492   16.3415 C   0  0  0  0  0  0  0  0  0  0  0  0
   11.8368  -15.3365   17.1258 N   0  0  0  0  0  0  0  0  0  0  0  0
   10.6083  -19.9290   20.9961 C   0  0  0  0  0  0  0  0  0  0  0  0
   11.4259  -19.4687   21.7884 O   0  0  0  0  0  0  0  0  0  0  0  0
    9.9100  -21.1223   21.2080 N   0  0  0  0  0  0  0  0  0  0  0  0
    8.6204  -21.5327   21.8467 C   0  0  0  0  0  0  0  0  0  0  0  0
    7.3163  -21.8776   20.9453 C   0  0  0  0  0  0  0  0  0  0  0  0
    7.0359  -20.5067   21.2304 C   0  0  0  0  0  0  0  0  0  0  0  0
    8.3737  -20.6861   22.0504 C   0  0  0  0  0  0  0  0  0  0  0  0
   10.6236  -21.3135   18.8274 H   0  0  0  0  0  0  0  0  0  0  0  0
   11.9441  -20.2027   18.4280 H   0  0  0  0  0  0  0  0  0  0  0  0
   10.3873  -20.1104   17.5937 H   0  0  0  0  0  0  0  0  0  0  0  0
    9.2980  -19.0629   19.5104 H   0  0  0  0  0  0  0  0  0  0  0  0
   12.1328  -15.3214   20.4099 H   0  0  0  0  0  0  0  0  0  0  0  0
   12.7500  -12.9511   19.1584 H   0  0  0  0  0  0  0  0  0  0  0  0
   12.2193  -13.7426   15.4049 H   0  0  0  0  0  0  0  0  0  0  0  0
   14.2310  -12.5185   15.9450 H   0  0  0  0  0  0  0  0  0  0  0  0
   13.4118  -11.6005   17.2101 H   0  0  0  0  0  0  0  0  0  0  0  0
   13.0656  -10.1678   15.2992 H   0  0  0  0  0  0  0  0  0  0  0  0
   12.9585  -11.5303   14.1995 H   0  0  0  0  0  0  0  0  0  0  0  0
   10.7512  -10.2971   15.7444 H   0  0  0  0  0  0  0  0  0  0  0  0
   10.6858  -11.4373   14.3970 H   0  0  0  0  0  0  0  0  0  0  0  0
   10.0236  -12.9472   16.0456 H   0  0  0  0  0  0  0  0  0  0  0  0
   10.6885  -11.9268   17.3334 H   0  0  0  0  0  0  0  0  0  0  0  0
    8.9554  -22.5916   21.4889 H   0  0  0  0  0  0  0  0  0  0  0  0
    8.7620  -22.2122   22.8808 H   0  0  0  0  0  0  0  0  0  0  0  0
    6.6455  -22.5953   21.4262 H   0  0  0  0  0  0  0  0  0  0  0  0
    7.5409  -22.1098   19.9003 H   0  0  0  0  0  0  0  0  0  0  0  0
    6.1497  -20.3315   21.8407 H   0  0  0  0  0  0  0  0  0  0  0  0
    7.1320  -19.8190   20.3889 H   0  0  0  0  0  0  0  0  0  0  0  0
    8.4202  -20.4129   23.2371 H   0  0  0  0  0  0  0  0  0  0  0  0
    8.5925  -19.5508   21.9605 H   0  0  0  0  0  0  0  0  0  0  0  0
  1  2  1  0
  2  3  1  0
  3  4  1  0
  4  5  2  0
  4  6  1  0
  6  7  1  0
  7  8  2  0
  8  9  1  0
  9 10  1  0
 10 11  1  0
 11 12  1  0
 12 13  1  0
 13 14  1  0
  9 15  1  0
  2 16  1  0
 16 17  2  0
 16 18  1  0
 18 19  1  0
 19 20  1  0
 20 21  1  0
 21 22  1  0
 15  6  2  0
 22 18  1  0
 14 10  1  0
  1 23  1  0
  1 24  1  0
  1 25  1  0
  2 26  1  0
  7 27  1  0
  8 28  1  0
 10 29  1  0
 11 30  1  0
 11 31  1  0
 12 32  1  0
 12 33  1  0
 13 34  1  0
 13 35  1  0
 14 36  1  0
 14 37  1  0
 19 38  1  0
 19 39  1  0
 20 40  1  0
 20 41  1  0
 21 42  1  0
 21 43  1  0
 22 44  1  0
 22 45  1  0
M  END
>  <Energy>  (1033) 
613.30148947577561

>  <compound_id>  (1033) 
8725

>  <target_id>  (1033) 
1

>  <reference_id>  (1033) 
124

>  <inspiration_ids>  (1033) 
[96, 124]

>  <energy_score>  (1033) 
512.9230402926165

>  <distance_score>  (1033) 
16.610586405953132

>  <path>  (1033) 
/opt/xchem-fragalysis-2/maxwin/BulkDock/SCRATCH/511015/C8725-P124/C8725-P124.minimised.mol

>  <scratch_subdir>  (1033) 
/opt/xchem-fragalysis-2/maxwin/BulkDock/SCRATCH/511015/C8725-P124

>  <fragmenstein_runtime>  (1033) 
50.915380001068115

>  <fragmenstein_outcome>  (1033) 
too moved

>  <fragmenstein_mode>  (1033) 
expansion

>  <fragmenstein_error>  (1033) 


$$$$
C8726-P96
     RDKit          3D

 55 57  0  0  0  0  0  0  0  0999 V2000
    6.7853  -12.6268   24.0069 C   0  0  0  0  0  0  0  0  0  0  0  0
    4.7182  -12.5827   23.6526 C   0  0  0  0  0  0  0  0  0  0  0  0
    5.2736  -10.6609   23.6384 C   0  0  0  0  0  0  0  0  0  0  0  0
    6.5881  -10.0581   22.9580 N   0  0  0  0  0  0  0  0  0  0  0  0
    7.0058   -8.7150   23.4518 C   0  0  0  0  0  0  0  0  0  0  0  0
    8.0663   -7.9435   22.6430 C   0  0  0  0  0  0  0  0  0  0  0  0
    8.1598   -6.5192   22.6022 C   0  0  0  0  0  0  0  0  0  0  0  0
    9.3070   -6.2286   21.9063 C   0  0  0  0  0  0  0  0  0  0  0  0
    9.8394   -7.4320   21.5474 N   0  0  0  0  0  0  0  0  0  0  0  0
   11.1175   -7.6562   20.8872 C   0  0  0  0  0  0  0  0  0  0  0  0
   11.4020   -6.7213   19.6980 C   0  0  0  0  0  0  0  0  0  0  0  0
   12.5535   -5.8325   20.1478 C   0  0  0  0  0  0  0  0  0  0  0  0
   13.3646   -6.7430   21.0524 C   0  0  0  0  0  0  0  0  0  0  0  0
   12.3016   -7.4813   21.8537 C   0  0  0  0  0  0  0  0  0  0  0  0
    9.0930   -8.4897   21.9614 N   0  0  0  0  0  0  0  0  0  0  0  0
    3.5711  -12.9539   25.1314 N   0  0  0  0  0  0  0  0  0  0  0  0
    2.7966  -14.5025   25.6577 C   0  0  0  0  0  0  0  0  0  0  0  0
    2.9575  -15.6215   25.1931 O   0  0  0  0  0  0  0  0  0  0  0  0
    1.5019  -14.3816   26.9247 C   0  0  0  0  0  0  0  0  0  0  0  0
    0.3949  -15.0604   27.9021 N   0  0  0  0  0  0  0  0  0  0  0  0
    0.3289  -14.6016   29.2809 C   0  0  0  0  0  0  0  0  0  0  0  0
   -0.7447  -15.5100   29.9064 C   0  0  0  0  0  0  0  0  0  0  0  0
   -1.5528  -16.0681   28.7421 C   0  0  0  0  0  0  0  0  0  0  0  0
   -1.0067  -15.3236   27.5317 C   0  0  0  0  0  0  0  0  0  0  0  0
    7.2525  -13.3002   24.7056 H   0  0  0  0  0  0  0  0  0  0  0  0
    7.0718  -11.6533   24.4766 H   0  0  0  0  0  0  0  0  0  0  0  0
    7.6199  -12.5029   23.2868 H   0  0  0  0  0  0  0  0  0  0  0  0
    4.3568  -13.1229   22.7655 H   0  0  0  0  0  0  0  0  0  0  0  0
    4.6122  -10.1406   23.0155 H   0  0  0  0  0  0  0  0  0  0  0  0
    5.2300  -10.2817   24.6646 H   0  0  0  0  0  0  0  0  0  0  0  0
    6.4361   -9.9679   21.9563 H   0  0  0  0  0  0  0  0  0  0  0  0
    7.3953   -8.8361   24.4695 H   0  0  0  0  0  0  0  0  0  0  0  0
    6.1233   -8.0713   23.5155 H   0  0  0  0  0  0  0  0  0  0  0  0
    7.4926   -5.8113   23.0757 H   0  0  0  0  0  0  0  0  0  0  0  0
    9.7951   -5.2895   21.6854 H   0  0  0  0  0  0  0  0  0  0  0  0
   11.0974   -8.6889   20.5195 H   0  0  0  0  0  0  0  0  0  0  0  0
   10.5402   -6.1350   19.3661 H   0  0  0  0  0  0  0  0  0  0  0  0
   11.7336   -7.3249   18.8436 H   0  0  0  0  0  0  0  0  0  0  0  0
   12.1734   -4.9740   20.7134 H   0  0  0  0  0  0  0  0  0  0  0  0
   13.1383   -5.4547   19.3043 H   0  0  0  0  0  0  0  0  0  0  0  0
   13.9474   -7.4528   20.4534 H   0  0  0  0  0  0  0  0  0  0  0  0
   14.0556   -6.1875   21.6928 H   0  0  0  0  0  0  0  0  0  0  0  0
   12.6719   -8.4451   22.2186 H   0  0  0  0  0  0  0  0  0  0  0  0
   12.0240   -6.8865   22.7326 H   0  0  0  0  0  0  0  0  0  0  0  0
    3.3047  -12.2071   25.7582 H   0  0  0  0  0  0  0  0  0  0  0  0
    1.0838  -15.1426   26.2554 H   0  0  0  0  0  0  0  0  0  0  0  0
    1.0078  -13.5207   26.6212 H   0  0  0  0  0  0  0  0  0  0  0  0
    0.0075  -13.5568   29.3326 H   0  0  0  0  0  0  0  0  0  0  0  0
    1.2782  -14.6941   29.8163 H   0  0  0  0  0  0  0  0  0  0  0  0
   -1.3766  -14.9432   30.5981 H   0  0  0  0  0  0  0  0  0  0  0  0
   -0.2821  -16.3302   30.4673 H   0  0  0  0  0  0  0  0  0  0  0  0
   -1.3752  -17.1459   28.6483 H   0  0  0  0  0  0  0  0  0  0  0  0
   -2.6276  -15.9095   28.8722 H   0  0  0  0  0  0  0  0  0  0  0  0
   -1.1304  -15.9370   26.6350 H   0  0  0  0  0  0  0  0  0  0  0  0
   -1.5661  -14.3871   27.4132 H   0  0  0  0  0  0  0  0  0  0  0  0
  1  2  1  0
  2  3  1  0
  3  4  1  0
  4  5  1  0
  5  6  1  0
  6  7  1  0
  7  8  2  0
  8  9  1  0
  9 10  1  0
 10 11  1  0
 11 12  1  0
 12 13  1  0
 13 14  1  0
  9 15  1  0
  2 16  1  0
 16 17  1  0
 17 18  2  0
 17 19  1  0
 19 20  1  0
 20 21  1  0
 21 22  1  0
 22 23  1  0
 23 24  1  0
 15  6  2  0
 24 20  1  0
 14 10  1  0
  1 25  1  0
  1 26  1  0
  1 27  1  0
  2 28  1  0
  3 29  1  0
  3 30  1  0
  4 31  1  0
  5 32  1  0
  5 33  1  0
  7 34  1  0
  8 35  1  0
 10 36  1  0
 11 37  1  0
 11 38  1  0
 12 39  1  0
 12 40  1  0
 13 41  1  0
 13 42  1  0
 14 43  1  0
 14 44  1  0
 16 45  1  0
 19 46  1  0
 19 47  1  0
 21 48  1  0
 21 49  1  0
 22 50  1  0
 22 51  1  0
 23 52  1  0
 23 53  1  0
 24 54  1  0
 24 55  1  0
M  END
>  <Energy>  (1034) 
472.31955836494973

>  <compound_id>  (1034) 
8726

>  <target_id>  (1034) 
1

>  <reference_id>  (1034) 
96

>  <inspiration_ids>  (1034) 
[96, 124]

>  <energy_score>  (1034) 
362.45804089754836

>  <distance_score>  (1034) 
13.103141316811492

>  <path>  (1034) 
/opt/xchem-fragalysis-2/maxwin/BulkDock/SCRATCH/511015/C8726-P96/C8726-P96.minimised.mol

>  <scratch_subdir>  (1034) 
/opt/xchem-fragalysis-2/maxwin/BulkDock/SCRATCH/511015/C8726-P96

>  <fragmenstein_runtime>  (1034) 
31.77314805984497

>  <fragmenstein_outcome>  (1034) 
too moved

>  <fragmenstein_mode>  (1034) 
expansion

>  <fragmenstein_error>  (1034) 


$$$$
C8726-P124
     RDKit          3D

 55 57  0  0  0  0  0  0  0  0999 V2000
    7.3213   -7.5550   26.0161 C   0  0  0  0  0  0  0  0  0  0  0  0
    8.2651   -8.5132   26.7459 C   0  0  0  0  0  0  0  0  0  0  0  0
    9.5195   -8.9004   25.7590 C   0  0  0  0  0  0  0  0  0  0  0  0
   10.4599   -7.7990   25.3668 N   0  0  0  0  0  0  0  0  0  0  0  0
   11.5066   -8.1575   24.3673 C   0  0  0  0  0  0  0  0  0  0  0  0
   12.3246   -6.9710   23.8601 C   0  0  0  0  0  0  0  0  0  0  0  0
   12.4421   -5.6700   24.4132 C   0  0  0  0  0  0  0  0  0  0  0  0
   13.1750   -4.9435   23.5069 C   0  0  0  0  0  0  0  0  0  0  0  0
   13.5203   -5.8102   22.5138 N   0  0  0  0  0  0  0  0  0  0  0  0
   14.3546   -5.5194   21.3606 C   0  0  0  0  0  0  0  0  0  0  0  0
   15.7786   -5.0738   21.7342 C   0  0  0  0  0  0  0  0  0  0  0  0
   16.1341   -4.0224   20.6940 C   0  0  0  0  0  0  0  0  0  0  0  0
   14.8186   -3.2946   20.4816 C   0  0  0  0  0  0  0  0  0  0  0  0
   13.7857   -4.4148   20.4588 C   0  0  0  0  0  0  0  0  0  0  0  0
   12.9943   -7.0489   22.6882 N   0  0  0  0  0  0  0  0  0  0  0  0
    7.4549   -9.6429   27.3939 N   0  0  0  0  0  0  0  0  0  0  0  0
    6.1257   -9.6220   28.0888 C   0  0  0  0  0  0  0  0  0  0  0  0
    5.3345   -8.7262   28.2361 O   0  0  0  0  0  0  0  0  0  0  0  0
    5.7814  -11.0341   28.8168 C   0  0  0  0  0  0  0  0  0  0  0  0
    4.3139  -11.4176   28.9687 N   0  0  0  0  0  0  0  0  0  0  0  0
    4.0617  -12.8053   29.4377 C   0  0  0  0  0  0  0  0  0  0  0  0
    2.5704  -12.8801   29.7740 C   0  0  0  0  0  0  0  0  0  0  0  0
    2.1465  -11.4263   29.8958 C   0  0  0  0  0  0  0  0  0  0  0  0
    3.4574  -10.6203   29.8464 C   0  0  0  0  0  0  0  0  0  0  0  0
    6.7572   -8.0842   25.2449 H   0  0  0  0  0  0  0  0  0  0  0  0
    7.8589   -6.7280   25.5442 H   0  0  0  0  0  0  0  0  0  0  0  0
    6.5986   -7.1101   26.7068 H   0  0  0  0  0  0  0  0  0  0  0  0
    8.6993   -7.9804   27.6010 H   0  0  0  0  0  0  0  0  0  0  0  0
   10.1019   -9.6712   26.2773 H   0  0  0  0  0  0  0  0  0  0  0  0
    9.0936   -9.3646   24.8631 H   0  0  0  0  0  0  0  0  0  0  0  0
    9.9561   -6.9560   25.1071 H   0  0  0  0  0  0  0  0  0  0  0  0
   11.0351   -8.6437   23.5060 H   0  0  0  0  0  0  0  0  0  0  0  0
   12.1966   -8.8756   24.8249 H   0  0  0  0  0  0  0  0  0  0  0  0
   11.9957   -5.2972   25.3254 H   0  0  0  0  0  0  0  0  0  0  0  0
   13.4726   -3.9035   23.4952 H   0  0  0  0  0  0  0  0  0  0  0  0
   14.4325   -6.4480   20.7877 H   0  0  0  0  0  0  0  0  0  0  0  0
   16.4830   -5.9121   21.7187 H   0  0  0  0  0  0  0  0  0  0  0  0
   15.8230   -4.6313   22.7363 H   0  0  0  0  0  0  0  0  0  0  0  0
   16.9309   -3.3547   21.0334 H   0  0  0  0  0  0  0  0  0  0  0  0
   16.4590   -4.5026   19.7634 H   0  0  0  0  0  0  0  0  0  0  0  0
   14.6251   -2.6180   21.3218 H   0  0  0  0  0  0  0  0  0  0  0  0
   14.8116   -2.7051   19.5604 H   0  0  0  0  0  0  0  0  0  0  0  0
   12.7960   -4.0682   20.7640 H   0  0  0  0  0  0  0  0  0  0  0  0
   13.6878   -4.7885   19.4351 H   0  0  0  0  0  0  0  0  0  0  0  0
    7.8904  -10.5462   27.5353 H   0  0  0  0  0  0  0  0  0  0  0  0
    6.2719  -11.0304   29.7959 H   0  0  0  0  0  0  0  0  0  0  0  0
    6.2447  -11.7960   28.1842 H   0  0  0  0  0  0  0  0  0  0  0  0
    4.2863  -13.5286   28.6564 H   0  0  0  0  0  0  0  0  0  0  0  0
    4.6556  -13.0236   30.3327 H   0  0  0  0  0  0  0  0  0  0  0  0
    2.4086  -13.4263   30.7088 H   0  0  0  0  0  0  0  0  0  0  0  0
    2.0017  -13.3803   28.9826 H   0  0  0  0  0  0  0  0  0  0  0  0
    1.5893  -11.2348   30.8179 H   0  0  0  0  0  0  0  0  0  0  0  0
    1.5039  -11.1534   29.0500 H   0  0  0  0  0  0  0  0  0  0  0  0
    3.2733   -9.6147   29.4597 H   0  0  0  0  0  0  0  0  0  0  0  0
    3.8907  -10.5381   30.8506 H   0  0  0  0  0  0  0  0  0  0  0  0
  1  2  1  0
  2  3  1  0
  3  4  1  0
  4  5  1  0
  5  6  1  0
  6  7  1  0
  7  8  2  0
  8  9  1  0
  9 10  1  0
 10 11  1  0
 11 12  1  0
 12 13  1  0
 13 14  1  0
  9 15  1  0
  2 16  1  0
 16 17  1  0
 17 18  2  0
 17 19  1  0
 19 20  1  0
 20 21  1  0
 21 22  1  0
 22 23  1  0
 23 24  1  0
 15  6  2  0
 24 20  1  0
 14 10  1  0
  1 25  1  0
  1 26  1  0
  1 27  1  0
  2 28  1  0
  3 29  1  0
  3 30  1  0
  4 31  1  0
  5 32  1  0
  5 33  1  0
  7 34  1  0
  8 35  1  0
 10 36  1  0
 11 37  1  0
 11 38  1  0
 12 39  1  0
 12 40  1  0
 13 41  1  0
 13 42  1  0
 14 43  1  0
 14 44  1  0
 16 45  1  0
 19 46  1  0
 19 47  1  0
 21 48  1  0
 21 49  1  0
 22 50  1  0
 22 51  1  0
 23 52  1  0
 23 53  1  0
 24 54  1  0
 24 55  1  0
M  END
>  <Energy>  (1035) 
110.33662891463931

>  <compound_id>  (1035) 
8726

>  <target_id>  (1035) 
1

>  <reference_id>  (1035) 
124

>  <inspiration_ids>  (1035) 
[96, 124]

>  <energy_score>  (1035) 
0.47511144724330734

>  <distance_score>  (1035) 
14.603992326412987

>  <path>  (1035) 
/opt/xchem-fragalysis-2/maxwin/BulkDock/SCRATCH/511015/C8726-P124/C8726-P124.minimised.mol

>  <scratch_subdir>  (1035) 
/opt/xchem-fragalysis-2/maxwin/BulkDock/SCRATCH/511015/C8726-P124

>  <fragmenstein_runtime>  (1035) 
52.744030714035034

>  <fragmenstein_outcome>  (1035) 
too moved

>  <fragmenstein_mode>  (1035) 
expansion

>  <fragmenstein_error>  (1035) 


$$$$
C8728-P96
     RDKit          3D

 58 60  0  0  0  0  0  0  0  0999 V2000
    7.7388   -9.7206   22.6066 C   0  0  0  0  0  0  0  0  0  0  0  0
    7.1257  -10.1164   23.9641 C   0  0  0  0  0  0  0  0  0  0  0  0
    5.8072   -9.5369   24.3217 N   0  0  0  0  0  0  0  0  0  0  0  0
    4.7413  -10.5763   25.2702 C   0  0  0  0  0  0  0  0  0  0  0  0
    3.5138  -12.1374   25.3746 C   0  0  0  0  0  0  0  0  0  0  0  0
    3.2426  -13.4492   26.6021 N   0  0  0  0  0  0  0  0  0  0  0  0
    2.7493  -14.8403   26.4499 C   0  0  0  0  0  0  0  0  0  0  0  0
    2.4845  -15.4703   25.4659 O   0  0  0  0  0  0  0  0  0  0  0  0
    2.4465  -15.5072   27.8665 C   0  0  0  0  0  0  0  0  0  0  0  0
    1.4948  -16.6869   27.8347 N   0  0  0  0  0  0  0  0  0  0  0  0
    0.1484  -16.4307   27.3048 C   0  0  0  0  0  0  0  0  0  0  0  0
   -0.7357  -17.5756   27.8141 C   0  0  0  0  0  0  0  0  0  0  0  0
    0.0852  -18.2474   28.9013 C   0  0  0  0  0  0  0  0  0  0  0  0
    1.2427  -17.2831   29.1524 C   0  0  0  0  0  0  0  0  0  0  0  0
    6.0554   -8.1683   24.9088 C   0  0  0  0  0  0  0  0  0  0  0  0
    6.7588   -7.1339   23.9951 C   0  0  0  0  0  0  0  0  0  0  0  0
    6.1689   -6.2437   23.0595 C   0  0  0  0  0  0  0  0  0  0  0  0
    7.1812   -5.4213   22.6228 C   0  0  0  0  0  0  0  0  0  0  0  0
    8.3146   -5.8654   23.2284 N   0  0  0  0  0  0  0  0  0  0  0  0
    9.6701   -5.3859   23.0505 C   0  0  0  0  0  0  0  0  0  0  0  0
    9.8420   -3.8673   23.0110 C   0  0  0  0  0  0  0  0  0  0  0  0
   11.2324   -3.7092   22.4171 C   0  0  0  0  0  0  0  0  0  0  0  0
   11.2908   -4.7709   21.3257 C   0  0  0  0  0  0  0  0  0  0  0  0
   10.3429   -5.8881   21.7673 C   0  0  0  0  0  0  0  0  0  0  0  0
    8.0789   -6.8741   24.1003 N   0  0  0  0  0  0  0  0  0  0  0  0
    6.9480   -9.5579   21.8704 H   0  0  0  0  0  0  0  0  0  0  0  0
    8.3772  -10.5311   22.2404 H   0  0  0  0  0  0  0  0  0  0  0  0
    8.3686   -8.8354   22.6568 H   0  0  0  0  0  0  0  0  0  0  0  0
    7.8476   -9.9485   24.7641 H   0  0  0  0  0  0  0  0  0  0  0  0
    6.9754  -11.1807   23.9227 H   0  0  0  0  0  0  0  0  0  0  0  0
    4.5638  -10.7675   24.2111 H   0  0  0  0  0  0  0  0  0  0  0  0
    4.3187   -9.8526   25.9597 H   0  0  0  0  0  0  0  0  0  0  0  0
    2.5182  -11.7129   25.3903 H   0  0  0  0  0  0  0  0  0  0  0  0
    3.6500  -12.6418   24.4105 H   0  0  0  0  0  0  0  0  0  0  0  0
    3.4377  -13.2750   27.5723 H   0  0  0  0  0  0  0  0  0  0  0  0
    3.4093  -15.8463   28.2639 H   0  0  0  0  0  0  0  0  0  0  0  0
    2.0382  -14.7347   28.5285 H   0  0  0  0  0  0  0  0  0  0  0  0
   -0.2440  -15.4783   27.6797 H   0  0  0  0  0  0  0  0  0  0  0  0
    0.1384  -16.4248   26.2165 H   0  0  0  0  0  0  0  0  0  0  0  0
   -1.6792  -17.1867   28.2114 H   0  0  0  0  0  0  0  0  0  0  0  0
   -0.9701  -18.2882   27.0160 H   0  0  0  0  0  0  0  0  0  0  0  0
    0.4662  -19.2093   28.5376 H   0  0  0  0  0  0  0  0  0  0  0  0
   -0.4994  -18.4347   29.8070 H   0  0  0  0  0  0  0  0  0  0  0  0
    2.1224  -17.8085   29.5367 H   0  0  0  0  0  0  0  0  0  0  0  0
    0.9434  -16.5194   29.8813 H   0  0  0  0  0  0  0  0  0  0  0  0
    6.6218   -8.2671   25.8436 H   0  0  0  0  0  0  0  0  0  0  0  0
    5.0832   -7.7377   25.1778 H   0  0  0  0  0  0  0  0  0  0  0  0
    5.1284   -6.1684   22.7776 H   0  0  0  0  0  0  0  0  0  0  0  0
    7.1593   -4.5670   21.9630 H   0  0  0  0  0  0  0  0  0  0  0  0
   10.2468   -5.7625   23.9080 H   0  0  0  0  0  0  0  0  0  0  0  0
    9.1046   -3.3820   22.3634 H   0  0  0  0  0  0  0  0  0  0  0  0
    9.7634   -3.4162   24.0051 H   0  0  0  0  0  0  0  0  0  0  0  0
   11.4075   -2.7027   22.0262 H   0  0  0  0  0  0  0  0  0  0  0  0
   11.9932   -3.9144   23.1796 H   0  0  0  0  0  0  0  0  0  0  0  0
   10.9477   -4.3501   20.3742 H   0  0  0  0  0  0  0  0  0  0  0  0
   12.3110   -5.1364   21.1722 H   0  0  0  0  0  0  0  0  0  0  0  0
   10.8916   -6.8169   21.9602 H   0  0  0  0  0  0  0  0  0  0  0  0
    9.6237   -6.1053   20.9709 H   0  0  0  0  0  0  0  0  0  0  0  0
  1  2  1  0
  2  3  1  0
  3  4  1  0
  4  5  1  0
  5  6  1  0
  6  7  1  0
  7  8  2  0
  7  9  1  0
  9 10  1  0
 10 11  1  0
 11 12  1  0
 12 13  1  0
 13 14  1  0
  3 15  1  0
 15 16  1  0
 16 17  1  0
 17 18  2  0
 18 19  1  0
 19 20  1  0
 20 21  1  0
 21 22  1  0
 22 23  1  0
 23 24  1  0
 19 25  1  0
 14 10  1  0
 25 16  2  0
 24 20  1  0
  1 26  1  0
  1 27  1  0
  1 28  1  0
  2 29  1  0
  2 30  1  0
  4 31  1  0
  4 32  1  0
  5 33  1  0
  5 34  1  0
  6 35  1  0
  9 36  1  0
  9 37  1  0
 11 38  1  0
 11 39  1  0
 12 40  1  0
 12 41  1  0
 13 42  1  0
 13 43  1  0
 14 44  1  0
 14 45  1  0
 15 46  1  0
 15 47  1  0
 17 48  1  0
 18 49  1  0
 20 50  1  0
 21 51  1  0
 21 52  1  0
 22 53  1  0
 22 54  1  0
 23 55  1  0
 23 56  1  0
 24 57  1  0
 24 58  1  0
M  END
>  <Energy>  (1036) 
282.16405957947705

>  <compound_id>  (1036) 
8728

>  <target_id>  (1036) 
1

>  <reference_id>  (1036) 
96

>  <inspiration_ids>  (1036) 
[96, 124]

>  <energy_score>  (1036) 
143.48198726478756

>  <distance_score>  (1036) 
13.012024849882183

>  <path>  (1036) 
/opt/xchem-fragalysis-2/maxwin/BulkDock/SCRATCH/511015/C8728-P96/C8728-P96.minimised.mol

>  <scratch_subdir>  (1036) 
/opt/xchem-fragalysis-2/maxwin/BulkDock/SCRATCH/511015/C8728-P96

>  <fragmenstein_runtime>  (1036) 
30.403687477111816

>  <fragmenstein_outcome>  (1036) 
too moved

>  <fragmenstein_mode>  (1036) 
expansion

>  <fragmenstein_error>  (1036) 


$$$$
C8728-P124
     RDKit          3D

 58 60  0  0  0  0  0  0  0  0999 V2000
   11.1928   -8.4034   21.1029 C   0  0  0  0  0  0  0  0  0  0  0  0
    9.8517   -8.6751   19.8047 C   0  0  0  0  0  0  0  0  0  0  0  0
    8.6468   -9.7706   18.7356 N   0  0  0  0  0  0  0  0  0  0  0  0
    7.2912  -10.7583   19.5276 C   0  0  0  0  0  0  0  0  0  0  0  0
    5.6793  -11.7759   19.8783 C   0  0  0  0  0  0  0  0  0  0  0  0
    4.7045  -12.7242   20.8772 N   0  0  0  0  0  0  0  0  0  0  0  0
    3.6766  -12.2946   22.1772 C   0  0  0  0  0  0  0  0  0  0  0  0
    3.4039  -11.1881   22.5455 O   0  0  0  0  0  0  0  0  0  0  0  0
    2.9317  -13.5838   23.3761 C   0  0  0  0  0  0  0  0  0  0  0  0
    1.5908  -13.3674   24.0766 N   0  0  0  0  0  0  0  0  0  0  0  0
    0.3537  -14.5757   23.8112 C   0  0  0  0  0  0  0  0  0  0  0  0
   -0.5579  -14.9663   25.0322 C   0  0  0  0  0  0  0  0  0  0  0  0
   -0.0911  -14.1941   26.2485 C   0  0  0  0  0  0  0  0  0  0  0  0
    1.2024  -13.3625   25.8778 C   0  0  0  0  0  0  0  0  0  0  0  0
    9.2945  -10.7596   17.6442 C   0  0  0  0  0  0  0  0  0  0  0  0
   10.6202  -10.8941   16.9015 C   0  0  0  0  0  0  0  0  0  0  0  0
   11.8308  -11.3477   17.4736 C   0  0  0  0  0  0  0  0  0  0  0  0
   12.6462  -11.7064   16.4384 C   0  0  0  0  0  0  0  0  0  0  0  0
   11.8897  -11.5747   15.3127 N   0  0  0  0  0  0  0  0  0  0  0  0
   12.1787  -12.3197   14.1045 C   0  0  0  0  0  0  0  0  0  0  0  0
   13.6152  -12.1592   13.5779 C   0  0  0  0  0  0  0  0  0  0  0  0
   13.5481  -12.4233   12.0717 C   0  0  0  0  0  0  0  0  0  0  0  0
   12.0987  -12.7871   11.7756 C   0  0  0  0  0  0  0  0  0  0  0  0
   11.3206  -12.0781   12.8722 C   0  0  0  0  0  0  0  0  0  0  0  0
   10.6775  -11.0241   15.5598 N   0  0  0  0  0  0  0  0  0  0  0  0
   11.9633   -9.1919   21.2066 H   0  0  0  0  0  0  0  0  0  0  0  0
   10.7772   -8.3515   22.1169 H   0  0  0  0  0  0  0  0  0  0  0  0
   11.7369   -7.4661   20.9905 H   0  0  0  0  0  0  0  0  0  0  0  0
    9.4409   -8.8304   20.6996 H   0  0  0  0  0  0  0  0  0  0  0  0
    9.3647   -7.7531   19.7962 H   0  0  0  0  0  0  0  0  0  0  0  0
    6.8373  -10.7545   18.5621 H   0  0  0  0  0  0  0  0  0  0  0  0
    7.9891  -11.5690   19.6996 H   0  0  0  0  0  0  0  0  0  0  0  0
    5.3807  -12.1399   18.9293 H   0  0  0  0  0  0  0  0  0  0  0  0
    6.3860  -12.5406   20.1916 H   0  0  0  0  0  0  0  0  0  0  0  0
    4.6793  -13.7287   20.7453 H   0  0  0  0  0  0  0  0  0  0  0  0
    2.9941  -14.5876   22.9720 H   0  0  0  0  0  0  0  0  0  0  0  0
    3.5438  -13.6055   24.2586 H   0  0  0  0  0  0  0  0  0  0  0  0
   -0.2295  -14.3525   22.9518 H   0  0  0  0  0  0  0  0  0  0  0  0
    0.8834  -15.3573   23.3887 H   0  0  0  0  0  0  0  0  0  0  0  0
   -0.5819  -16.0465   25.2214 H   0  0  0  0  0  0  0  0  0  0  0  0
   -1.6090  -14.7666   24.8880 H   0  0  0  0  0  0  0  0  0  0  0  0
    0.1084  -14.8657   27.0909 H   0  0  0  0  0  0  0  0  0  0  0  0
   -0.8799  -13.5113   26.5891 H   0  0  0  0  0  0  0  0  0  0  0  0
    2.0041  -13.7357   26.5209 H   0  0  0  0  0  0  0  0  0  0  0  0
    1.0036  -12.3302   26.1966 H   0  0  0  0  0  0  0  0  0  0  0  0
    8.5233  -10.9649   16.9170 H   0  0  0  0  0  0  0  0  0  0  0  0
    9.4943  -11.5719   18.3037 H   0  0  0  0  0  0  0  0  0  0  0  0
   12.1135  -11.3808   18.5091 H   0  0  0  0  0  0  0  0  0  0  0  0
   13.6537  -12.0988   16.4168 H   0  0  0  0  0  0  0  0  0  0  0  0
   12.0442  -13.3736   14.3933 H   0  0  0  0  0  0  0  0  0  0  0  0
   14.0112  -11.1561   13.7693 H   0  0  0  0  0  0  0  0  0  0  0  0
   14.2919  -12.8689   14.0674 H   0  0  0  0  0  0  0  0  0  0  0  0
   14.2336  -13.2191   11.7639 H   0  0  0  0  0  0  0  0  0  0  0  0
   13.8300  -11.5166   11.5243 H   0  0  0  0  0  0  0  0  0  0  0  0
   11.7891  -12.4740   10.7743 H   0  0  0  0  0  0  0  0  0  0  0  0
   11.9592  -13.8719   11.8524 H   0  0  0  0  0  0  0  0  0  0  0  0
   10.3034  -12.4654   12.9793 H   0  0  0  0  0  0  0  0  0  0  0  0
   11.2770  -11.0169   12.6365 H   0  0  0  0  0  0  0  0  0  0  0  0
  1  2  1  0
  2  3  1  0
  3  4  1  0
  4  5  1  0
  5  6  1  0
  6  7  1  0
  7  8  2  0
  7  9  1  0
  9 10  1  0
 10 11  1  0
 11 12  1  0
 12 13  1  0
 13 14  1  0
  3 15  1  0
 15 16  1  0
 16 17  1  0
 17 18  2  0
 18 19  1  0
 19 20  1  0
 20 21  1  0
 21 22  1  0
 22 23  1  0
 23 24  1  0
 19 25  1  0
 14 10  1  0
 25 16  2  0
 24 20  1  0
  1 26  1  0
  1 27  1  0
  1 28  1  0
  2 29  1  0
  2 30  1  0
  4 31  1  0
  4 32  1  0
  5 33  1  0
  5 34  1  0
  6 35  1  0
  9 36  1  0
  9 37  1  0
 11 38  1  0
 11 39  1  0
 12 40  1  0
 12 41  1  0
 13 42  1  0
 13 43  1  0
 14 44  1  0
 14 45  1  0
 15 46  1  0
 15 47  1  0
 17 48  1  0
 18 49  1  0
 20 50  1  0
 21 51  1  0
 21 52  1  0
 22 53  1  0
 22 54  1  0
 23 55  1  0
 23 56  1  0
 24 57  1  0
 24 58  1  0
M  END
>  <Energy>  (1037) 
677.96977906061636

>  <compound_id>  (1037) 
8728

>  <target_id>  (1037) 
1

>  <reference_id>  (1037) 
124

>  <inspiration_ids>  (1037) 
[96, 124]

>  <energy_score>  (1037) 
539.2877067459199

>  <distance_score>  (1037) 
12.559032264929003

>  <path>  (1037) 
/opt/xchem-fragalysis-2/maxwin/BulkDock/SCRATCH/511015/C8728-P124/C8728-P124.minimised.mol

>  <scratch_subdir>  (1037) 
/opt/xchem-fragalysis-2/maxwin/BulkDock/SCRATCH/511015/C8728-P124

>  <fragmenstein_runtime>  (1037) 
40.51960635185242

>  <fragmenstein_outcome>  (1037) 
too moved

>  <fragmenstein_mode>  (1037) 
expansion

>  <fragmenstein_error>  (1037) 


$$$$
C8731-P96
     RDKit          3D

 58 60  0  0  0  0  0  0  0  0999 V2000
   15.6451  -11.6357   17.1689 C   0  0  0  0  0  0  0  0  0  0  0  0
   14.2697  -11.3654   16.5613 C   0  0  0  0  0  0  0  0  0  0  0  0
   13.1813  -12.4245   17.0542 C   0  0  0  0  0  0  0  0  0  0  0  0
   13.3744  -14.0016   16.9069 C   0  0  0  0  0  0  0  0  0  0  0  0
   12.1242  -14.8498   17.0545 N   0  0  0  0  0  0  0  0  0  0  0  0
   11.9036  -16.1497   17.7473 C   0  0  0  0  0  0  0  0  0  0  0  0
   12.6459  -16.8085   18.4282 O   0  0  0  0  0  0  0  0  0  0  0  0
   10.4251  -16.7875   17.4013 C   0  0  0  0  0  0  0  0  0  0  0  0
    9.5270  -17.2139   18.5426 N   0  0  0  0  0  0  0  0  0  0  0  0
    8.1521  -17.6050   18.1656 C   0  0  0  0  0  0  0  0  0  0  0  0
    7.5974  -18.4807   19.2972 C   0  0  0  0  0  0  0  0  0  0  0  0
    8.7531  -18.6093   20.2650 C   0  0  0  0  0  0  0  0  0  0  0  0
    9.9822  -18.3051   19.4037 C   0  0  0  0  0  0  0  0  0  0  0  0
   13.8918   -9.9647   16.9198 N   0  0  0  0  0  0  0  0  0  0  0  0
   14.4095   -8.9220   16.0029 C   0  0  0  0  0  0  0  0  0  0  0  0
   14.2374   -7.5073   16.5277 C   0  0  0  0  0  0  0  0  0  0  0  0
   14.8822   -6.3568   15.9985 C   0  0  0  0  0  0  0  0  0  0  0  0
   14.4884   -5.3115   16.7955 C   0  0  0  0  0  0  0  0  0  0  0  0
   13.6571   -5.8490   17.7356 N   0  0  0  0  0  0  0  0  0  0  0  0
   13.1712   -5.1739   18.9199 C   0  0  0  0  0  0  0  0  0  0  0  0
   12.5855   -3.7814   18.6790 C   0  0  0  0  0  0  0  0  0  0  0  0
   11.8775   -3.4512   19.9895 C   0  0  0  0  0  0  0  0  0  0  0  0
   11.5120   -4.7946   20.6220 C   0  0  0  0  0  0  0  0  0  0  0  0
   12.0236   -5.8640   19.6625 C   0  0  0  0  0  0  0  0  0  0  0  0
   13.4385   -7.1710   17.5574 N   0  0  0  0  0  0  0  0  0  0  0  0
   15.9812  -12.6476   16.9188 H   0  0  0  0  0  0  0  0  0  0  0  0
   16.4037  -10.9418   16.7929 H   0  0  0  0  0  0  0  0  0  0  0  0
   15.6201  -11.5542   18.2614 H   0  0  0  0  0  0  0  0  0  0  0  0
   14.3379  -11.4651   15.4722 H   0  0  0  0  0  0  0  0  0  0  0  0
   13.0053  -12.2200   18.1161 H   0  0  0  0  0  0  0  0  0  0  0  0
   12.2663  -12.1680   16.5103 H   0  0  0  0  0  0  0  0  0  0  0  0
   14.1057  -14.3630   17.6361 H   0  0  0  0  0  0  0  0  0  0  0  0
   13.7523  -14.2147   15.9019 H   0  0  0  0  0  0  0  0  0  0  0  0
   11.2529  -14.5428   16.6380 H   0  0  0  0  0  0  0  0  0  0  0  0
    9.8806  -16.0389   16.8179 H   0  0  0  0  0  0  0  0  0  0  0  0
   10.6099  -17.6429   16.7401 H   0  0  0  0  0  0  0  0  0  0  0  0
    8.1533  -18.1771   17.2299 H   0  0  0  0  0  0  0  0  0  0  0  0
    7.5231  -16.7259   18.0273 H   0  0  0  0  0  0  0  0  0  0  0  0
    6.7163  -18.0338   19.7609 H   0  0  0  0  0  0  0  0  0  0  0  0
    7.3231  -19.4685   18.9113 H   0  0  0  0  0  0  0  0  0  0  0  0
    8.8031  -19.5965   20.7327 H   0  0  0  0  0  0  0  0  0  0  0  0
    8.6774  -17.8554   21.0551 H   0  0  0  0  0  0  0  0  0  0  0  0
   10.8321  -18.0130   20.0268 H   0  0  0  0  0  0  0  0  0  0  0  0
   10.2618  -19.1855   18.8124 H   0  0  0  0  0  0  0  0  0  0  0  0
   12.8889   -9.8265   17.0122 H   0  0  0  0  0  0  0  0  0  0  0  0
   15.4795   -9.0806   15.8274 H   0  0  0  0  0  0  0  0  0  0  0  0
   13.8971   -9.0039   15.0385 H   0  0  0  0  0  0  0  0  0  0  0  0
   15.5629   -6.3149   15.1603 H   0  0  0  0  0  0  0  0  0  0  0  0
   14.7599   -4.2656   16.7936 H   0  0  0  0  0  0  0  0  0  0  0  0
   14.0370   -5.0956   19.5922 H   0  0  0  0  0  0  0  0  0  0  0  0
   13.3494   -3.0360   18.4362 H   0  0  0  0  0  0  0  0  0  0  0  0
   11.8624   -3.7984   17.8540 H   0  0  0  0  0  0  0  0  0  0  0  0
   12.5523   -2.9021   20.6567 H   0  0  0  0  0  0  0  0  0  0  0  0
   11.0005   -2.8185   19.8243 H   0  0  0  0  0  0  0  0  0  0  0  0
   12.0050   -4.8903   21.5964 H   0  0  0  0  0  0  0  0  0  0  0  0
   10.4358   -4.8925   20.7913 H   0  0  0  0  0  0  0  0  0  0  0  0
   12.3468   -6.7654   20.1931 H   0  0  0  0  0  0  0  0  0  0  0  0
   11.2232   -6.1528   18.9700 H   0  0  0  0  0  0  0  0  0  0  0  0
  1  2  1  0
  2  3  1  0
  3  4  1  0
  4  5  1  0
  5  6  1  0
  6  7  2  0
  6  8  1  0
  8  9  1  0
  9 10  1  0
 10 11  1  0
 11 12  1  0
 12 13  1  0
  2 14  1  0
 14 15  1  0
 15 16  1  0
 16 17  1  0
 17 18  2  0
 18 19  1  0
 19 20  1  0
 20 21  1  0
 21 22  1  0
 22 23  1  0
 23 24  1  0
 19 25  1  0
 13  9  1  0
 25 16  2  0
 24 20  1  0
  1 26  1  0
  1 27  1  0
  1 28  1  0
  2 29  1  0
  3 30  1  0
  3 31  1  0
  4 32  1  0
  4 33  1  0
  5 34  1  0
  8 35  1  0
  8 36  1  0
 10 37  1  0
 10 38  1  0
 11 39  1  0
 11 40  1  0
 12 41  1  0
 12 42  1  0
 13 43  1  0
 13 44  1  0
 14 45  1  0
 15 46  1  0
 15 47  1  0
 17 48  1  0
 18 49  1  0
 20 50  1  0
 21 51  1  0
 21 52  1  0
 22 53  1  0
 22 54  1  0
 23 55  1  0
 23 56  1  0
 24 57  1  0
 24 58  1  0
M  END
>  <Energy>  (1038) 
92.739118510129586

>  <compound_id>  (1038) 
8731

>  <target_id>  (1038) 
1

>  <reference_id>  (1038) 
96

>  <inspiration_ids>  (1038) 
[96, 124]

>  <energy_score>  (1038) 
-15.084934048395553

>  <distance_score>  (1038) 
14.67105398190152

>  <path>  (1038) 
/opt/xchem-fragalysis-2/maxwin/BulkDock/SCRATCH/511015/C8731-P96/C8731-P96.minimised.mol

>  <scratch_subdir>  (1038) 
/opt/xchem-fragalysis-2/maxwin/BulkDock/SCRATCH/511015/C8731-P96

>  <fragmenstein_runtime>  (1038) 
45.300012826919556

>  <fragmenstein_outcome>  (1038) 
too moved

>  <fragmenstein_mode>  (1038) 
expansion

>  <fragmenstein_error>  (1038) 


$$$$
C8731-P124
     RDKit          3D

 58 60  0  0  0  0  0  0  0  0999 V2000
    6.9905  -10.3727   26.9191 C   0  0  0  0  0  0  0  0  0  0  0  0
    7.1908  -11.6989   26.1542 C   0  0  0  0  0  0  0  0  0  0  0  0
    6.2956  -12.9708   26.9796 C   0  0  0  0  0  0  0  0  0  0  0  0
    5.2685  -14.0438   26.0762 C   0  0  0  0  0  0  0  0  0  0  0  0
    3.8701  -13.9967   25.2863 N   0  0  0  0  0  0  0  0  0  0  0  0
    3.3508  -14.8136   23.9424 C   0  0  0  0  0  0  0  0  0  0  0  0
    3.9903  -15.5333   23.2799 O   0  0  0  0  0  0  0  0  0  0  0  0
    1.3633  -14.6215   23.5591 C   0  0  0  0  0  0  0  0  0  0  0  0
   -0.1596  -15.2459   24.2194 N   0  0  0  0  0  0  0  0  0  0  0  0
   -1.3127  -15.4545   23.3481 C   0  0  0  0  0  0  0  0  0  0  0  0
   -2.2828  -16.2654   24.2196 C   0  0  0  0  0  0  0  0  0  0  0  0
   -1.8007  -16.0564   25.6507 C   0  0  0  0  0  0  0  0  0  0  0  0
   -0.7223  -14.9687   25.5429 C   0  0  0  0  0  0  0  0  0  0  0  0
    8.7041  -11.6819   25.9959 N   0  0  0  0  0  0  0  0  0  0  0  0
    9.1002  -10.8838   24.7910 C   0  0  0  0  0  0  0  0  0  0  0  0
   10.2356   -9.8699   24.8153 C   0  0  0  0  0  0  0  0  0  0  0  0
   10.6398   -8.9595   25.8143 C   0  0  0  0  0  0  0  0  0  0  0  0
   11.6073   -8.1644   25.2338 C   0  0  0  0  0  0  0  0  0  0  0  0
   11.7461   -8.6008   23.9520 N   0  0  0  0  0  0  0  0  0  0  0  0
   12.7004   -8.1853   22.9296 C   0  0  0  0  0  0  0  0  0  0  0  0
   13.3235   -6.7900   23.1118 C   0  0  0  0  0  0  0  0  0  0  0  0
   14.7423   -7.0524   23.5933 C   0  0  0  0  0  0  0  0  0  0  0  0
   15.1391   -8.2914   22.8110 C   0  0  0  0  0  0  0  0  0  0  0  0
   13.8900   -9.1620   22.8567 C   0  0  0  0  0  0  0  0  0  0  0  0
   10.8912   -9.6017   23.6663 N   0  0  0  0  0  0  0  0  0  0  0  0
    7.2193   -9.4925   26.3093 H   0  0  0  0  0  0  0  0  0  0  0  0
    5.9606  -10.2661   27.2710 H   0  0  0  0  0  0  0  0  0  0  0  0
    7.6165  -10.3375   27.8197 H   0  0  0  0  0  0  0  0  0  0  0  0
    6.7307  -11.6382   25.1629 H   0  0  0  0  0  0  0  0  0  0  0  0
    7.0684  -13.6161   27.4164 H   0  0  0  0  0  0  0  0  0  0  0  0
    5.7189  -12.5388   27.8030 H   0  0  0  0  0  0  0  0  0  0  0  0
    5.6483  -15.0657   26.0739 H   0  0  0  0  0  0  0  0  0  0  0  0
    5.6465  -13.3425   25.3940 H   0  0  0  0  0  0  0  0  0  0  0  0
    3.0861  -13.5147   25.7067 H   0  0  0  0  0  0  0  0  0  0  0  0
    1.3295  -13.6615   24.0393 H   0  0  0  0  0  0  0  0  0  0  0  0
    0.9635  -14.9379   22.6353 H   0  0  0  0  0  0  0  0  0  0  0  0
   -1.1195  -15.9770   22.4111 H   0  0  0  0  0  0  0  0  0  0  0  0
   -1.7776  -14.5134   23.0770 H   0  0  0  0  0  0  0  0  0  0  0  0
   -3.3113  -15.9138   24.0882 H   0  0  0  0  0  0  0  0  0  0  0  0
   -2.2493  -17.3302   23.9636 H   0  0  0  0  0  0  0  0  0  0  0  0
   -2.6148  -15.7601   26.3194 H   0  0  0  0  0  0  0  0  0  0  0  0
   -1.3651  -16.9864   26.0354 H   0  0  0  0  0  0  0  0  0  0  0  0
   -0.0331  -15.0356   26.3859 H   0  0  0  0  0  0  0  0  0  0  0  0
   -1.2273  -14.0025   25.6044 H   0  0  0  0  0  0  0  0  0  0  0  0
    9.0254  -12.6394   25.8440 H   0  0  0  0  0  0  0  0  0  0  0  0
    9.3366  -11.6423   24.0375 H   0  0  0  0  0  0  0  0  0  0  0  0
    8.2269  -10.2991   24.4853 H   0  0  0  0  0  0  0  0  0  0  0  0
   10.2648   -8.8925   26.8263 H   0  0  0  0  0  0  0  0  0  0  0  0
   12.2009   -7.3609   25.6455 H   0  0  0  0  0  0  0  0  0  0  0  0
   12.1439   -8.2013   21.9849 H   0  0  0  0  0  0  0  0  0  0  0  0
   12.7726   -6.1244   23.7817 H   0  0  0  0  0  0  0  0  0  0  0  0
   13.3719   -6.2927   22.1340 H   0  0  0  0  0  0  0  0  0  0  0  0
   15.4090   -6.2075   23.3992 H   0  0  0  0  0  0  0  0  0  0  0  0
   14.7503   -7.2595   24.6696 H   0  0  0  0  0  0  0  0  0  0  0  0
   15.3735   -8.0255   21.7732 H   0  0  0  0  0  0  0  0  0  0  0  0
   16.0111   -8.7944   23.2386 H   0  0  0  0  0  0  0  0  0  0  0  0
   13.8259   -9.8082   21.9747 H   0  0  0  0  0  0  0  0  0  0  0  0
   13.9305   -9.8157   23.7369 H   0  0  0  0  0  0  0  0  0  0  0  0
  1  2  1  0
  2  3  1  0
  3  4  1  0
  4  5  1  0
  5  6  1  0
  6  7  2  0
  6  8  1  0
  8  9  1  0
  9 10  1  0
 10 11  1  0
 11 12  1  0
 12 13  1  0
  2 14  1  0
 14 15  1  0
 15 16  1  0
 16 17  1  0
 17 18  2  0
 18 19  1  0
 19 20  1  0
 20 21  1  0
 21 22  1  0
 22 23  1  0
 23 24  1  0
 19 25  1  0
 13  9  1  0
 25 16  2  0
 24 20  1  0
  1 26  1  0
  1 27  1  0
  1 28  1  0
  2 29  1  0
  3 30  1  0
  3 31  1  0
  4 32  1  0
  4 33  1  0
  5 34  1  0
  8 35  1  0
  8 36  1  0
 10 37  1  0
 10 38  1  0
 11 39  1  0
 11 40  1  0
 12 41  1  0
 12 42  1  0
 13 43  1  0
 13 44  1  0
 14 45  1  0
 15 46  1  0
 15 47  1  0
 17 48  1  0
 18 49  1  0
 20 50  1  0
 21 51  1  0
 21 52  1  0
 22 53  1  0
 22 54  1  0
 23 55  1  0
 23 56  1  0
 24 57  1  0
 24 58  1  0
M  END
>  <Energy>  (1039) 
332.41632984985353

>  <compound_id>  (1039) 
8731

>  <target_id>  (1039) 
1

>  <reference_id>  (1039) 
124

>  <inspiration_ids>  (1039) 
[96, 124]

>  <energy_score>  (1039) 
224.59227729132374

>  <distance_score>  (1039) 
13.97082010634104

>  <path>  (1039) 
/opt/xchem-fragalysis-2/maxwin/BulkDock/SCRATCH/511015/C8731-P124/C8731-P124.minimised.mol

>  <scratch_subdir>  (1039) 
/opt/xchem-fragalysis-2/maxwin/BulkDock/SCRATCH/511015/C8731-P124

>  <fragmenstein_runtime>  (1039) 
60.09998440742493

>  <fragmenstein_outcome>  (1039) 
too moved

>  <fragmenstein_mode>  (1039) 
expansion

>  <fragmenstein_error>  (1039) 


$$$$
C8732-P96
     RDKit          3D

 43 45  0  0  0  0  0  0  0  0999 V2000
    0.4026   -9.4408   22.4582 O   0  0  0  0  0  0  0  0  0  0  0  0
    1.1992  -10.3154   22.4907 C   0  0  0  0  0  0  0  0  0  0  0  0
    2.4101  -10.3030   21.5550 C   0  0  0  0  0  0  0  0  0  0  0  0
    3.4732   -8.4094   21.4342 S   0  0  0  0  0  0  0  0  0  0  0  0
    5.3589   -8.7022   21.4774 C   0  0  0  0  0  0  0  0  0  0  0  0
    6.2579   -7.5176   21.7919 C   0  0  0  0  0  0  0  0  0  0  0  0
    5.9640   -6.2422   22.2455 C   0  0  0  0  0  0  0  0  0  0  0  0
    7.1888   -5.5578   22.3161 C   0  0  0  0  0  0  0  0  0  0  0  0
    8.1971   -6.3025   21.8592 N   0  0  0  0  0  0  0  0  0  0  0  0
    7.6590   -7.5395   21.6899 N   0  0  0  0  0  0  0  0  0  0  0  0
    8.5565   -8.6312   21.3011 C   0  0  0  0  0  0  0  0  0  0  0  0
    8.9319   -8.6728   19.8124 C   0  0  0  0  0  0  0  0  0  0  0  0
   10.1525   -7.7734   19.6683 C   0  0  0  0  0  0  0  0  0  0  0  0
   10.8507   -7.7935   21.0242 C   0  0  0  0  0  0  0  0  0  0  0  0
    9.9444   -8.5816   21.9677 C   0  0  0  0  0  0  0  0  0  0  0  0
    0.9021  -11.1301   23.4778 N   0  0  0  0  0  0  0  0  0  0  0  0
   -0.2438  -12.5941   22.7427 C   0  0  0  0  0  0  0  0  0  0  0  0
   -1.6347  -13.3322   22.9464 C   0  0  0  0  0  0  0  0  0  0  0  0
   -1.8243  -12.2616   23.8503 C   0  0  0  0  0  0  0  0  0  0  0  0
    0.1875  -12.1444   23.6165 C   0  0  0  0  0  0  0  0  0  0  0  0
    2.3478  -10.7151   20.5804 H   0  0  0  0  0  0  0  0  0  0  0  0
    2.8301  -11.1046   22.1135 H   0  0  0  0  0  0  0  0  0  0  0  0
    5.6628   -9.0191   20.4757 H   0  0  0  0  0  0  0  0  0  0  0  0
    5.5599   -9.4697   22.2290 H   0  0  0  0  0  0  0  0  0  0  0  0
    4.9833   -5.8538   22.4865 H   0  0  0  0  0  0  0  0  0  0  0  0
    7.3757   -4.5344   22.6209 H   0  0  0  0  0  0  0  0  0  0  0  0
    8.0392   -9.5516   21.5947 H   0  0  0  0  0  0  0  0  0  0  0  0
    9.2211   -9.6994   19.5508 H   0  0  0  0  0  0  0  0  0  0  0  0
    8.1176   -8.3949   19.1406 H   0  0  0  0  0  0  0  0  0  0  0  0
    9.8568   -6.7494   19.4184 H   0  0  0  0  0  0  0  0  0  0  0  0
   10.8126   -8.1208   18.8672 H   0  0  0  0  0  0  0  0  0  0  0  0
   11.0004   -6.7709   21.3878 H   0  0  0  0  0  0  0  0  0  0  0  0
   11.8398   -8.2592   20.9579 H   0  0  0  0  0  0  0  0  0  0  0  0
   10.3333   -9.6046   22.0533 H   0  0  0  0  0  0  0  0  0  0  0  0
    9.9305   -8.1561   22.9766 H   0  0  0  0  0  0  0  0  0  0  0  0
    0.5818  -13.0172   22.0050 H   0  0  0  0  0  0  0  0  0  0  0  0
   -0.7816  -12.3813   21.7575 H   0  0  0  0  0  0  0  0  0  0  0  0
   -1.8920  -13.5958   21.9139 H   0  0  0  0  0  0  0  0  0  0  0  0
   -2.3011  -14.1180   23.3019 H   0  0  0  0  0  0  0  0  0  0  0  0
   -2.2499  -12.7509   24.7560 H   0  0  0  0  0  0  0  0  0  0  0  0
   -2.5073  -11.4462   23.6781 H   0  0  0  0  0  0  0  0  0  0  0  0
    0.0184  -11.3089   24.3419 H   0  0  0  0  0  0  0  0  0  0  0  0
    0.7669  -12.3049   24.6846 H   0  0  0  0  0  0  0  0  0  0  0  0
  1  2  2  0
  2  3  1  0
  3  4  1  0
  4  5  1  0
  5  6  1  0
  6  7  2  0
  7  8  1  0
  8  9  2  0
  9 10  1  0
 10 11  1  0
 11 12  1  0
 12 13  1  0
 13 14  1  0
 14 15  1  0
  2 16  1  0
 16 17  1  0
 17 18  1  0
 18 19  1  0
 19 20  1  0
 10  6  1  0
 15 11  1  0
 20 16  1  0
  3 21  1  0
  3 22  1  0
  5 23  1  0
  5 24  1  0
  7 25  1  0
  8 26  1  0
 11 27  1  0
 12 28  1  0
 12 29  1  0
 13 30  1  0
 13 31  1  0
 14 32  1  0
 14 33  1  0
 15 34  1  0
 15 35  1  0
 17 36  1  0
 17 37  1  0
 18 38  1  0
 18 39  1  0
 19 40  1  0
 19 41  1  0
 20 42  1  0
 20 43  1  0
M  END
>  <Energy>  (1040) 
858.16252139487653

>  <compound_id>  (1040) 
8732

>  <target_id>  (1040) 
1

>  <reference_id>  (1040) 
96

>  <inspiration_ids>  (1040) 
[96, 124]

>  <energy_score>  (1040) 
773.1942516227336

>  <distance_score>  (1040) 
13.422188001398156

>  <path>  (1040) 
/opt/xchem-fragalysis-2/maxwin/BulkDock/SCRATCH/511015/C8732-P96/C8732-P96.minimised.mol

>  <scratch_subdir>  (1040) 
/opt/xchem-fragalysis-2/maxwin/BulkDock/SCRATCH/511015/C8732-P96

>  <fragmenstein_runtime>  (1040) 
18.508764266967773

>  <fragmenstein_outcome>  (1040) 
too moved

>  <fragmenstein_mode>  (1040) 
expansion

>  <fragmenstein_error>  (1040) 


$$$$
C8732-P124
     RDKit          3D

 43 45  0  0  0  0  0  0  0  0999 V2000
    1.0143  -12.2467   27.1043 O   0  0  0  0  0  0  0  0  0  0  0  0
    0.5141  -12.4867   25.9612 C   0  0  0  0  0  0  0  0  0  0  0  0
    1.7110  -11.9735   24.3682 C   0  0  0  0  0  0  0  0  0  0  0  0
    3.3636  -11.8969   22.9318 S   0  0  0  0  0  0  0  0  0  0  0  0
    4.5930   -9.9987   22.6429 C   0  0  0  0  0  0  0  0  0  0  0  0
    5.9094  -10.0332   21.6821 C   0  0  0  0  0  0  0  0  0  0  0  0
    6.3583  -10.9498   20.7316 C   0  0  0  0  0  0  0  0  0  0  0  0
    7.4576  -10.3793   20.0696 C   0  0  0  0  0  0  0  0  0  0  0  0
    7.7587   -9.1864   20.5585 N   0  0  0  0  0  0  0  0  0  0  0  0
    6.8480   -8.9831   21.5428 N   0  0  0  0  0  0  0  0  0  0  0  0
    6.9952   -7.7232   22.2602 C   0  0  0  0  0  0  0  0  0  0  0  0
    8.3466   -7.6136   23.0002 C   0  0  0  0  0  0  0  0  0  0  0  0
    8.7001   -6.1377   22.9438 C   0  0  0  0  0  0  0  0  0  0  0  0
    8.2703   -5.7462   21.5438 C   0  0  0  0  0  0  0  0  0  0  0  0
    6.9468   -6.4752   21.3445 C   0  0  0  0  0  0  0  0  0  0  0  0
   -1.2089  -13.4563   25.6228 N   0  0  0  0  0  0  0  0  0  0  0  0
   -2.6999  -12.1001   25.5813 C   0  0  0  0  0  0  0  0  0  0  0  0
   -4.0570  -12.1302   26.7649 C   0  0  0  0  0  0  0  0  0  0  0  0
   -4.1028  -13.5449   26.5562 C   0  0  0  0  0  0  0  0  0  0  0  0
   -2.9346  -13.0059   25.4589 C   0  0  0  0  0  0  0  0  0  0  0  0
    1.1507  -11.7690   23.4459 H   0  0  0  0  0  0  0  0  0  0  0  0
    2.0468  -13.0140   24.3441 H   0  0  0  0  0  0  0  0  0  0  0  0
    5.0538   -9.5880   23.5444 H   0  0  0  0  0  0  0  0  0  0  0  0
    3.8575   -9.2295   22.3871 H   0  0  0  0  0  0  0  0  0  0  0  0
    5.8966  -11.8935   20.4673 H   0  0  0  0  0  0  0  0  0  0  0  0
    8.0336  -10.7843   19.2468 H   0  0  0  0  0  0  0  0  0  0  0  0
    6.1725   -7.6652   22.9811 H   0  0  0  0  0  0  0  0  0  0  0  0
    9.1358   -8.2006   22.5154 H   0  0  0  0  0  0  0  0  0  0  0  0
    8.2665   -7.9716   24.0320 H   0  0  0  0  0  0  0  0  0  0  0  0
    9.7644   -5.9571   23.1188 H   0  0  0  0  0  0  0  0  0  0  0  0
    8.1267   -5.5782   23.6922 H   0  0  0  0  0  0  0  0  0  0  0  0
    9.0061   -6.1003   20.8148 H   0  0  0  0  0  0  0  0  0  0  0  0
    8.1705   -4.6641   21.4280 H   0  0  0  0  0  0  0  0  0  0  0  0
    6.1268   -5.8272   21.6790 H   0  0  0  0  0  0  0  0  0  0  0  0
    6.7600   -6.6999   20.2898 H   0  0  0  0  0  0  0  0  0  0  0  0
   -2.4707  -11.1505   26.0798 H   0  0  0  0  0  0  0  0  0  0  0  0
   -3.1265  -11.3840   24.7133 H   0  0  0  0  0  0  0  0  0  0  0  0
   -4.8927  -11.5550   26.3518 H   0  0  0  0  0  0  0  0  0  0  0  0
   -3.7676  -11.7826   27.7612 H   0  0  0  0  0  0  0  0  0  0  0  0
   -3.7512  -14.1990   27.3589 H   0  0  0  0  0  0  0  0  0  0  0  0
   -5.0129  -13.9025   26.0670 H   0  0  0  0  0  0  0  0  0  0  0  0
   -3.6859  -13.1970   24.5378 H   0  0  0  0  0  0  0  0  0  0  0  0
   -2.8943  -14.1782   25.3531 H   0  0  0  0  0  0  0  0  0  0  0  0
  1  2  2  0
  2  3  1  0
  3  4  1  0
  4  5  1  0
  5  6  1  0
  6  7  2  0
  7  8  1  0
  8  9  2  0
  9 10  1  0
 10 11  1  0
 11 12  1  0
 12 13  1  0
 13 14  1  0
 14 15  1  0
  2 16  1  0
 16 17  1  0
 17 18  1  0
 18 19  1  0
 19 20  1  0
 10  6  1  0
 15 11  1  0
 20 16  1  0
  3 21  1  0
  3 22  1  0
  5 23  1  0
  5 24  1  0
  7 25  1  0
  8 26  1  0
 11 27  1  0
 12 28  1  0
 12 29  1  0
 13 30  1  0
 13 31  1  0
 14 32  1  0
 14 33  1  0
 15 34  1  0
 15 35  1  0
 17 36  1  0
 17 37  1  0
 18 38  1  0
 18 39  1  0
 19 40  1  0
 19 41  1  0
 20 42  1  0
 20 43  1  0
M  END
>  <Energy>  (1041) 
1074.3809418045707

>  <compound_id>  (1041) 
8732

>  <target_id>  (1041) 
1

>  <reference_id>  (1041) 
124

>  <inspiration_ids>  (1041) 
[96, 124]

>  <energy_score>  (1041) 
989.412672032422

>  <distance_score>  (1041) 
13.037463095281524

>  <path>  (1041) 
/opt/xchem-fragalysis-2/maxwin/BulkDock/SCRATCH/511015/C8732-P124/C8732-P124.minimised.mol

>  <scratch_subdir>  (1041) 
/opt/xchem-fragalysis-2/maxwin/BulkDock/SCRATCH/511015/C8732-P124

>  <fragmenstein_runtime>  (1041) 
25.20208239555359

>  <fragmenstein_outcome>  (1041) 
too moved

>  <fragmenstein_mode>  (1041) 
expansion

>  <fragmenstein_error>  (1041) 


$$$$
C8734-P96
     RDKit          3D

 49 51  0  0  0  0  0  0  0  0999 V2000
    5.7100  -10.5997   23.4772 O   0  0  0  0  0  0  0  0  0  0  0  0
    5.3193  -10.2009   24.5436 C   0  0  0  0  0  0  0  0  0  0  0  0
    4.3118  -10.8339   25.5435 N   0  0  0  0  0  0  0  0  0  0  0  0
    3.2766  -12.3375   25.4026 C   0  0  0  0  0  0  0  0  0  0  0  0
    2.6941  -14.0305   26.2588 C   0  0  0  0  0  0  0  0  0  0  0  0
    1.1489  -14.3294   27.4139 C   0  0  0  0  0  0  0  0  0  0  0  0
   -0.1781  -15.3669   27.4919 C   0  0  0  0  0  0  0  0  0  0  0  0
   -0.6848  -15.8397   26.5732 O   0  0  0  0  0  0  0  0  0  0  0  0
   -0.4139  -15.5570   29.1021 N   0  0  0  0  0  0  0  0  0  0  0  0
   -1.4795  -16.7282   30.2318 C   0  0  0  0  0  0  0  0  0  0  0  0
   -3.0094  -16.5105   30.6536 C   0  0  0  0  0  0  0  0  0  0  0  0
   -2.5914  -15.2305   30.1908 C   0  0  0  0  0  0  0  0  0  0  0  0
   -1.4206  -16.2759   29.5846 C   0  0  0  0  0  0  0  0  0  0  0  0
    5.8555   -8.8360   24.8534 C   0  0  0  0  0  0  0  0  0  0  0  0
    5.3867   -7.8197   25.6695 C   0  0  0  0  0  0  0  0  0  0  0  0
    6.1211   -6.6622   25.3474 C   0  0  0  0  0  0  0  0  0  0  0  0
    7.0328   -6.8920   24.4139 N   0  0  0  0  0  0  0  0  0  0  0  0
    6.9384   -8.2253   24.1884 N   0  0  0  0  0  0  0  0  0  0  0  0
    7.9878   -8.8039   23.3517 C   0  0  0  0  0  0  0  0  0  0  0  0
    8.0228   -8.1844   21.9410 C   0  0  0  0  0  0  0  0  0  0  0  0
    9.4829   -7.8243   21.6734 C   0  0  0  0  0  0  0  0  0  0  0  0
   10.0277   -7.4987   23.0522 C   0  0  0  0  0  0  0  0  0  0  0  0
    9.3973   -8.5679   23.9351 C   0  0  0  0  0  0  0  0  0  0  0  0
    4.1497  -10.1912   26.3052 H   0  0  0  0  0  0  0  0  0  0  0  0
    3.6194  -12.6353   24.4001 H   0  0  0  0  0  0  0  0  0  0  0  0
    2.2975  -11.8570   25.2734 H   0  0  0  0  0  0  0  0  0  0  0  0
    3.5834  -14.3582   26.8016 H   0  0  0  0  0  0  0  0  0  0  0  0
    2.6347  -14.8666   25.5406 H   0  0  0  0  0  0  0  0  0  0  0  0
    0.6466  -13.4583   27.7448 H   0  0  0  0  0  0  0  0  0  0  0  0
    1.5900  -14.4964   28.4190 H   0  0  0  0  0  0  0  0  0  0  0  0
   -0.8981  -16.5684   31.3009 H   0  0  0  0  0  0  0  0  0  0  0  0
   -1.1537  -17.9242   30.2252 H   0  0  0  0  0  0  0  0  0  0  0  0
   -3.1952  -16.6176   31.7232 H   0  0  0  0  0  0  0  0  0  0  0  0
   -3.7166  -17.0522   30.0182 H   0  0  0  0  0  0  0  0  0  0  0  0
   -2.1834  -14.5397   30.9399 H   0  0  0  0  0  0  0  0  0  0  0  0
   -3.2379  -14.7233   29.4658 H   0  0  0  0  0  0  0  0  0  0  0  0
   -2.0500  -15.9152   28.6043 H   0  0  0  0  0  0  0  0  0  0  0  0
   -1.5733  -17.2204   28.6161 H   0  0  0  0  0  0  0  0  0  0  0  0
    4.5538   -7.8640   26.3537 H   0  0  0  0  0  0  0  0  0  0  0  0
    6.0097   -5.6617   25.7466 H   0  0  0  0  0  0  0  0  0  0  0  0
    7.8325   -9.8826   23.2973 H   0  0  0  0  0  0  0  0  0  0  0  0
    7.4011   -7.2850   21.8784 H   0  0  0  0  0  0  0  0  0  0  0  0
    7.6248   -8.8894   21.2076 H   0  0  0  0  0  0  0  0  0  0  0  0
    9.5903   -6.9903   20.9750 H   0  0  0  0  0  0  0  0  0  0  0  0
   10.0125   -8.6891   21.2569 H   0  0  0  0  0  0  0  0  0  0  0  0
   11.1206   -7.5287   23.0841 H   0  0  0  0  0  0  0  0  0  0  0  0
    9.7036   -6.4999   23.3656 H   0  0  0  0  0  0  0  0  0  0  0  0
    9.4016   -8.2851   24.9928 H   0  0  0  0  0  0  0  0  0  0  0  0
    9.9846   -9.4884   23.8417 H   0  0  0  0  0  0  0  0  0  0  0  0
  1  2  2  0
  2  3  1  0
  3  4  1  0
  4  5  1  0
  5  6  1  0
  6  7  1  0
  7  8  2  0
  7  9  1  0
  9 10  1  0
 10 11  1  0
 11 12  1  0
 12 13  1  0
  2 14  1  0
 14 15  2  0
 15 16  1  0
 16 17  2  0
 17 18  1  0
 18 19  1  0
 19 20  1  0
 20 21  1  0
 21 22  1  0
 22 23  1  0
 13  9  1  0
 18 14  1  0
 23 19  1  0
  3 24  1  0
  4 25  1  0
  4 26  1  0
  5 27  1  0
  5 28  1  0
  6 29  1  0
  6 30  1  0
 10 31  1  0
 10 32  1  0
 11 33  1  0
 11 34  1  0
 12 35  1  0
 12 36  1  0
 13 37  1  0
 13 38  1  0
 15 39  1  0
 16 40  1  0
 19 41  1  0
 20 42  1  0
 20 43  1  0
 21 44  1  0
 21 45  1  0
 22 46  1  0
 22 47  1  0
 23 48  1  0
 23 49  1  0
M  END
>  <Energy>  (1042) 
917.99557135964324

>  <compound_id>  (1042) 
8734

>  <target_id>  (1042) 
1

>  <reference_id>  (1042) 
96

>  <inspiration_ids>  (1042) 
[96, 124]

>  <energy_score>  (1042) 
924.598291724016

>  <distance_score>  (1042) 
13.34018159629038

>  <path>  (1042) 
/opt/xchem-fragalysis-2/maxwin/BulkDock/SCRATCH/511015/C8734-P96/C8734-P96.minimised.mol

>  <scratch_subdir>  (1042) 
/opt/xchem-fragalysis-2/maxwin/BulkDock/SCRATCH/511015/C8734-P96

>  <fragmenstein_runtime>  (1042) 
33.65479254722595

>  <fragmenstein_outcome>  (1042) 
too moved

>  <fragmenstein_mode>  (1042) 
expansion

>  <fragmenstein_error>  (1042) 


$$$$
C8734-P124
     RDKit          3D

 49 51  0  0  0  0  0  0  0  0999 V2000
    4.4963  -11.5392   17.6636 O   0  0  0  0  0  0  0  0  0  0  0  0
    5.0756  -12.0062   18.5414 C   0  0  0  0  0  0  0  0  0  0  0  0
    4.4897  -13.3688   19.1194 N   0  0  0  0  0  0  0  0  0  0  0  0
    3.1882  -14.3921   18.6030 C   0  0  0  0  0  0  0  0  0  0  0  0
    1.8070  -14.3455   17.4610 C   0  0  0  0  0  0  0  0  0  0  0  0
    1.1391  -13.9396   15.7995 C   0  0  0  0  0  0  0  0  0  0  0  0
   -0.4250  -14.0062   15.4849 C   0  0  0  0  0  0  0  0  0  0  0  0
   -0.8491  -14.5796   14.5814 O   0  0  0  0  0  0  0  0  0  0  0  0
   -1.1399  -13.2144   16.7444 N   0  0  0  0  0  0  0  0  0  0  0  0
   -2.4750  -13.0295   16.7927 C   0  0  0  0  0  0  0  0  0  0  0  0
   -3.3002  -14.5227   16.5420 C   0  0  0  0  0  0  0  0  0  0  0  0
   -3.5269  -14.3592   17.9428 C   0  0  0  0  0  0  0  0  0  0  0  0
   -2.9299  -12.9829   17.4201 C   0  0  0  0  0  0  0  0  0  0  0  0
    6.6967  -10.9979   18.8495 C   0  0  0  0  0  0  0  0  0  0  0  0
    7.9932  -11.0038   19.3788 C   0  0  0  0  0  0  0  0  0  0  0  0
    9.2988  -11.3495   18.4509 C   0  0  0  0  0  0  0  0  0  0  0  0
    9.1505  -10.6011   17.4669 N   0  0  0  0  0  0  0  0  0  0  0  0
    7.8136  -10.4977   17.3788 N   0  0  0  0  0  0  0  0  0  0  0  0
    7.9130  -10.3017   15.5788 C   0  0  0  0  0  0  0  0  0  0  0  0
    8.8151  -11.4375   14.8226 C   0  0  0  0  0  0  0  0  0  0  0  0
    8.0383  -11.9113   13.5867 C   0  0  0  0  0  0  0  0  0  0  0  0
    6.8887  -10.9561   13.2190 C   0  0  0  0  0  0  0  0  0  0  0  0
    6.5993  -10.0111   14.4086 C   0  0  0  0  0  0  0  0  0  0  0  0
    5.0410  -13.6093   19.9259 H   0  0  0  0  0  0  0  0  0  0  0  0
    3.8043  -15.1819   18.1874 H   0  0  0  0  0  0  0  0  0  0  0  0
    2.6103  -14.7087   19.4623 H   0  0  0  0  0  0  0  0  0  0  0  0
    0.9930  -13.9015   17.9638 H   0  0  0  0  0  0  0  0  0  0  0  0
    1.9425  -15.3902   17.2963 H   0  0  0  0  0  0  0  0  0  0  0  0
    1.5364  -14.7258   15.1435 H   0  0  0  0  0  0  0  0  0  0  0  0
    1.4359  -12.9547   15.4157 H   0  0  0  0  0  0  0  0  0  0  0  0
   -2.5696  -13.1233   15.5771 H   0  0  0  0  0  0  0  0  0  0  0  0
   -2.4832  -11.8681   16.1769 H   0  0  0  0  0  0  0  0  0  0  0  0
   -2.6724  -15.3662   16.2516 H   0  0  0  0  0  0  0  0  0  0  0  0
   -4.2091  -14.4142   15.9343 H   0  0  0  0  0  0  0  0  0  0  0  0
   -4.5620  -14.2881   18.2768 H   0  0  0  0  0  0  0  0  0  0  0  0
   -2.8546  -14.8976   18.6140 H   0  0  0  0  0  0  0  0  0  0  0  0
   -3.8203  -12.0602   17.3075 H   0  0  0  0  0  0  0  0  0  0  0  0
   -2.6307  -12.5518   18.5310 H   0  0  0  0  0  0  0  0  0  0  0  0
    8.1423   -9.9606   19.4109 H   0  0  0  0  0  0  0  0  0  0  0  0
   10.2612  -11.8146   18.5907 H   0  0  0  0  0  0  0  0  0  0  0  0
    8.7360   -9.5987   15.6474 H   0  0  0  0  0  0  0  0  0  0  0  0
    9.7699  -11.0008   14.5055 H   0  0  0  0  0  0  0  0  0  0  0  0
    9.1074  -12.2882   15.4484 H   0  0  0  0  0  0  0  0  0  0  0  0
    7.6231  -12.9063   13.7906 H   0  0  0  0  0  0  0  0  0  0  0  0
    8.7125  -12.0540   12.7349 H   0  0  0  0  0  0  0  0  0  0  0  0
    7.0828  -10.3938   12.3028 H   0  0  0  0  0  0  0  0  0  0  0  0
    5.9942  -11.5450   12.9768 H   0  0  0  0  0  0  0  0  0  0  0  0
    6.4822   -8.9488   14.1468 H   0  0  0  0  0  0  0  0  0  0  0  0
    5.5444  -10.1756   14.6582 H   0  0  0  0  0  0  0  0  0  0  0  0
  1  2  2  0
  2  3  1  0
  3  4  1  0
  4  5  1  0
  5  6  1  0
  6  7  1  0
  7  8  2  0
  7  9  1  0
  9 10  1  0
 10 11  1  0
 11 12  1  0
 12 13  1  0
  2 14  1  0
 14 15  2  0
 15 16  1  0
 16 17  2  0
 17 18  1  0
 18 19  1  0
 19 20  1  0
 20 21  1  0
 21 22  1  0
 22 23  1  0
 13  9  1  0
 18 14  1  0
 23 19  1  0
  3 24  1  0
  4 25  1  0
  4 26  1  0
  5 27  1  0
  5 28  1  0
  6 29  1  0
  6 30  1  0
 10 31  1  0
 10 32  1  0
 11 33  1  0
 11 34  1  0
 12 35  1  0
 12 36  1  0
 13 37  1  0
 13 38  1  0
 15 39  1  0
 16 40  1  0
 19 41  1  0
 20 42  1  0
 20 43  1  0
 21 44  1  0
 21 45  1  0
 22 46  1  0
 22 47  1  0
 23 48  1  0
 23 49  1  0
M  END
>  <Energy>  (1043) 
1257.4989004722256

>  <compound_id>  (1043) 
8734

>  <target_id>  (1043) 
1

>  <reference_id>  (1043) 
124

>  <inspiration_ids>  (1043) 
[96, 124]

>  <energy_score>  (1043) 
1264.1016208366227

>  <distance_score>  (1043) 
14.643716713052902

>  <path>  (1043) 
/opt/xchem-fragalysis-2/maxwin/BulkDock/SCRATCH/511015/C8734-P124/C8734-P124.minimised.mol

>  <scratch_subdir>  (1043) 
/opt/xchem-fragalysis-2/maxwin/BulkDock/SCRATCH/511015/C8734-P124

>  <fragmenstein_runtime>  (1043) 
42.75153994560242

>  <fragmenstein_outcome>  (1043) 
too moved

>  <fragmenstein_mode>  (1043) 
expansion

>  <fragmenstein_error>  (1043) 


$$$$
C8736-P96
     RDKit          3D

 41 43  0  0  0  0  0  0  0  0999 V2000
    7.3888  -14.0427   23.2217 O   0  0  0  0  0  0  0  0  0  0  0  0
    7.5791  -13.0571   23.8875 C   0  0  0  0  0  0  0  0  0  0  0  0
    6.9581  -12.9914   25.3432 C   0  0  0  0  0  0  0  0  0  0  0  0
    5.9429  -14.0062   25.7932 N   0  0  0  0  0  0  0  0  0  0  0  0
    4.5915  -13.9217   25.2682 C   0  0  0  0  0  0  0  0  0  0  0  0
    3.8799  -15.1545   25.8538 C   0  0  0  0  0  0  0  0  0  0  0  0
    4.9951  -16.1051   26.2590 C   0  0  0  0  0  0  0  0  0  0  0  0
    6.2837  -15.4254   25.7804 C   0  0  0  0  0  0  0  0  0  0  0  0
    8.3551  -11.8055   23.5819 N   0  0  0  0  0  0  0  0  0  0  0  0
    9.0365  -11.4088   22.4159 C   0  0  0  0  0  0  0  0  0  0  0  0
    9.2387  -12.1842   21.2851 C   0  0  0  0  0  0  0  0  0  0  0  0
    9.8717  -11.3731   20.3332 C   0  0  0  0  0  0  0  0  0  0  0  0
   10.1087  -10.1566   20.8033 N   0  0  0  0  0  0  0  0  0  0  0  0
    9.6673  -10.1926   22.0868 N   0  0  0  0  0  0  0  0  0  0  0  0
    9.9441   -8.9992   22.8818 C   0  0  0  0  0  0  0  0  0  0  0  0
    9.3018   -7.7220   22.3202 C   0  0  0  0  0  0  0  0  0  0  0  0
   10.3397   -7.0733   21.3885 C   0  0  0  0  0  0  0  0  0  0  0  0
   11.6938   -7.6724   21.7529 C   0  0  0  0  0  0  0  0  0  0  0  0
   11.4368   -8.6130   22.9327 C   0  0  0  0  0  0  0  0  0  0  0  0
    7.8054  -13.0493   26.0373 H   0  0  0  0  0  0  0  0  0  0  0  0
    6.5104  -11.9982   25.4690 H   0  0  0  0  0  0  0  0  0  0  0  0
    4.6038  -13.9635   24.1745 H   0  0  0  0  0  0  0  0  0  0  0  0
    4.1037  -12.9939   25.5815 H   0  0  0  0  0  0  0  0  0  0  0  0
    3.2191  -15.6283   25.1239 H   0  0  0  0  0  0  0  0  0  0  0  0
    3.2801  -14.8806   26.7290 H   0  0  0  0  0  0  0  0  0  0  0  0
    5.0070  -16.2197   27.3494 H   0  0  0  0  0  0  0  0  0  0  0  0
    4.8734  -17.0986   25.8165 H   0  0  0  0  0  0  0  0  0  0  0  0
    7.1185  -15.6518   26.4510 H   0  0  0  0  0  0  0  0  0  0  0  0
    6.5395  -15.7788   24.7771 H   0  0  0  0  0  0  0  0  0  0  0  0
    8.2355  -11.1453   24.3408 H   0  0  0  0  0  0  0  0  0  0  0  0
    8.9354  -13.2146   21.1607 H   0  0  0  0  0  0  0  0  0  0  0  0
   10.1671  -11.6213   19.3216 H   0  0  0  0  0  0  0  0  0  0  0  0
    9.5680   -9.2129   23.8882 H   0  0  0  0  0  0  0  0  0  0  0  0
    9.0990   -7.0308   23.1480 H   0  0  0  0  0  0  0  0  0  0  0  0
    8.3525   -7.9045   21.8059 H   0  0  0  0  0  0  0  0  0  0  0  0
   10.3368   -5.9843   21.5056 H   0  0  0  0  0  0  0  0  0  0  0  0
   10.1055   -7.2819   20.3396 H   0  0  0  0  0  0  0  0  0  0  0  0
   12.4223   -6.8985   22.0155 H   0  0  0  0  0  0  0  0  0  0  0  0
   12.1045   -8.2251   20.9006 H   0  0  0  0  0  0  0  0  0  0  0  0
   11.6290   -8.0659   23.8645 H   0  0  0  0  0  0  0  0  0  0  0  0
   12.1063   -9.4793   22.9163 H   0  0  0  0  0  0  0  0  0  0  0  0
  1  2  2  0
  2  3  1  0
  3  4  1  0
  4  5  1  0
  5  6  1  0
  6  7  1  0
  7  8  1  0
  2  9  1  0
  9 10  1  0
 10 11  2  0
 11 12  1  0
 12 13  2  0
 13 14  1  0
 14 15  1  0
 15 16  1  0
 16 17  1  0
 17 18  1  0
 18 19  1  0
  8  4  1  0
 14 10  1  0
 19 15  1  0
  3 20  1  0
  3 21  1  0
  5 22  1  0
  5 23  1  0
  6 24  1  0
  6 25  1  0
  7 26  1  0
  7 27  1  0
  8 28  1  0
  8 29  1  0
  9 30  1  0
 11 31  1  0
 12 32  1  0
 15 33  1  0
 16 34  1  0
 16 35  1  0
 17 36  1  0
 17 37  1  0
 18 38  1  0
 18 39  1  0
 19 40  1  0
 19 41  1  0
M  END
>  <Energy>  (1044) 
91.177347629478092

>  <compound_id>  (1044) 
8736

>  <target_id>  (1044) 
1

>  <reference_id>  (1044) 
96

>  <inspiration_ids>  (1044) 
[96, 124]

>  <energy_score>  (1044) 
-34.36675527685077

>  <distance_score>  (1044) 
14.456484852535624

>  <path>  (1044) 
/opt/xchem-fragalysis-2/maxwin/BulkDock/SCRATCH/511015/C8736-P96/C8736-P96.minimised.mol

>  <scratch_subdir>  (1044) 
/opt/xchem-fragalysis-2/maxwin/BulkDock/SCRATCH/511015/C8736-P96

>  <fragmenstein_runtime>  (1044) 
28.685384035110474

>  <fragmenstein_outcome>  (1044) 
too moved

>  <fragmenstein_mode>  (1044) 
expansion

>  <fragmenstein_error>  (1044) 


$$$$
C8736-P124
     RDKit          3D

 41 43  0  0  0  0  0  0  0  0999 V2000
    4.4974  -15.4478   17.6957 O   0  0  0  0  0  0  0  0  0  0  0  0
    5.5914  -15.8203   17.3658 C   0  0  0  0  0  0  0  0  0  0  0  0
    5.7827  -17.3911   17.1416 C   0  0  0  0  0  0  0  0  0  0  0  0
    4.6108  -18.2178   17.6125 N   0  0  0  0  0  0  0  0  0  0  0  0
    4.8660  -19.6303   17.9016 C   0  0  0  0  0  0  0  0  0  0  0  0
    3.4754  -20.2567   18.0758 C   0  0  0  0  0  0  0  0  0  0  0  0
    2.5479  -19.3783   17.2430 C   0  0  0  0  0  0  0  0  0  0  0  0
    3.4323  -18.2272   16.7320 C   0  0  0  0  0  0  0  0  0  0  0  0
    6.8429  -15.0523   17.1220 N   0  0  0  0  0  0  0  0  0  0  0  0
    7.1297  -13.6886   17.2958 C   0  0  0  0  0  0  0  0  0  0  0  0
    6.2652  -12.7481   17.8303 C   0  0  0  0  0  0  0  0  0  0  0  0
    6.9225  -11.5129   17.7961 C   0  0  0  0  0  0  0  0  0  0  0  0
    8.1499  -11.6183   17.3044 N   0  0  0  0  0  0  0  0  0  0  0  0
    8.2802  -12.9376   17.0007 N   0  0  0  0  0  0  0  0  0  0  0  0
    9.5436  -13.3303   16.3817 C   0  0  0  0  0  0  0  0  0  0  0  0
    9.6158  -12.8988   14.9078 C   0  0  0  0  0  0  0  0  0  0  0  0
   10.5412  -11.6845   14.8888 C   0  0  0  0  0  0  0  0  0  0  0  0
   11.5963  -12.0292   15.9189 C   0  0  0  0  0  0  0  0  0  0  0  0
   10.8093  -12.7053   17.0414 C   0  0  0  0  0  0  0  0  0  0  0  0
    6.6621  -17.6748   17.7318 H   0  0  0  0  0  0  0  0  0  0  0  0
    5.9906  -17.5768   16.0827 H   0  0  0  0  0  0  0  0  0  0  0  0
    5.3842  -20.1084   17.0612 H   0  0  0  0  0  0  0  0  0  0  0  0
    5.4736  -19.7589   18.8026 H   0  0  0  0  0  0  0  0  0  0  0  0
    3.1690  -20.2515   19.1275 H   0  0  0  0  0  0  0  0  0  0  0  0
    3.4626  -21.2963   17.7332 H   0  0  0  0  0  0  0  0  0  0  0  0
    1.7149  -19.0107   17.8494 H   0  0  0  0  0  0  0  0  0  0  0  0
    2.1221  -19.9376   16.4030 H   0  0  0  0  0  0  0  0  0  0  0  0
    3.7295  -18.4358   15.6966 H   0  0  0  0  0  0  0  0  0  0  0  0
    2.8956  -17.2769   16.7445 H   0  0  0  0  0  0  0  0  0  0  0  0
    7.5557  -15.6801   16.7766 H   0  0  0  0  0  0  0  0  0  0  0  0
    5.2715  -12.9416   18.2086 H   0  0  0  0  0  0  0  0  0  0  0  0
    6.5506  -10.5534   18.1260 H   0  0  0  0  0  0  0  0  0  0  0  0
    9.5876  -14.4231   16.4543 H   0  0  0  0  0  0  0  0  0  0  0  0
    8.6408  -12.6732   14.4638 H   0  0  0  0  0  0  0  0  0  0  0  0
   10.0713  -13.7045   14.3184 H   0  0  0  0  0  0  0  0  0  0  0  0
    9.9964  -10.7864   15.1962 H   0  0  0  0  0  0  0  0  0  0  0  0
   10.9658  -11.5197   13.8954 H   0  0  0  0  0  0  0  0  0  0  0  0
   12.1454  -11.1511   16.2603 H   0  0  0  0  0  0  0  0  0  0  0  0
   12.3193  -12.7362   15.4950 H   0  0  0  0  0  0  0  0  0  0  0  0
   10.5666  -11.9777   17.8232 H   0  0  0  0  0  0  0  0  0  0  0  0
   11.4186  -13.4826   17.5164 H   0  0  0  0  0  0  0  0  0  0  0  0
  1  2  2  0
  2  3  1  0
  3  4  1  0
  4  5  1  0
  5  6  1  0
  6  7  1  0
  7  8  1  0
  2  9  1  0
  9 10  1  0
 10 11  2  0
 11 12  1  0
 12 13  2  0
 13 14  1  0
 14 15  1  0
 15 16  1  0
 16 17  1  0
 17 18  1  0
 18 19  1  0
  8  4  1  0
 14 10  1  0
 19 15  1  0
  3 20  1  0
  3 21  1  0
  5 22  1  0
  5 23  1  0
  6 24  1  0
  6 25  1  0
  7 26  1  0
  7 27  1  0
  8 28  1  0
  8 29  1  0
  9 30  1  0
 11 31  1  0
 12 32  1  0
 15 33  1  0
 16 34  1  0
 16 35  1  0
 17 36  1  0
 17 37  1  0
 18 38  1  0
 18 39  1  0
 19 40  1  0
 19 41  1  0
M  END
>  <Energy>  (1045) 
90.168756327261534

>  <compound_id>  (1045) 
8736

>  <target_id>  (1045) 
1

>  <reference_id>  (1045) 
124

>  <inspiration_ids>  (1045) 
[96, 124]

>  <energy_score>  (1045) 
-35.3753465790702

>  <distance_score>  (1045) 
15.201286275403524

>  <path>  (1045) 
/opt/xchem-fragalysis-2/maxwin/BulkDock/SCRATCH/511015/C8736-P124/C8736-P124.minimised.mol

>  <scratch_subdir>  (1045) 
/opt/xchem-fragalysis-2/maxwin/BulkDock/SCRATCH/511015/C8736-P124

>  <fragmenstein_runtime>  (1045) 
37.93324899673462

>  <fragmenstein_outcome>  (1045) 
too moved

>  <fragmenstein_mode>  (1045) 
expansion

>  <fragmenstein_error>  (1045) 


$$$$
C8738-P96
     RDKit          3D

 46 48  0  0  0  0  0  0  0  0999 V2000
    5.4341  -11.4521   14.4473 C   0  0  0  0  0  0  0  0  0  0  0  0
    4.7693  -11.1275   15.7330 N   0  0  0  0  0  0  0  0  0  0  0  0
    3.3187  -11.5642   15.7362 C   0  0  0  0  0  0  0  0  0  0  0  0
    2.6524  -12.4823   14.5715 C   0  0  0  0  0  0  0  0  0  0  0  0
    3.0652  -12.4576   13.4964 O   0  0  0  0  0  0  0  0  0  0  0  0
    1.3579  -13.2334   15.2456 N   0  0  0  0  0  0  0  0  0  0  0  0
    0.3002  -14.4922   14.2584 C   0  0  0  0  0  0  0  0  0  0  0  0
   -0.0510  -15.9329   14.8568 C   0  0  0  0  0  0  0  0  0  0  0  0
   -0.4469  -15.0428   15.8858 C   0  0  0  0  0  0  0  0  0  0  0  0
    0.2946  -13.9536   14.7888 C   0  0  0  0  0  0  0  0  0  0  0  0
    5.5719  -10.4168   16.8785 C   0  0  0  0  0  0  0  0  0  0  0  0
    6.1719  -11.0900   17.7168 O   0  0  0  0  0  0  0  0  0  0  0  0
    5.7365   -8.6895   16.8953 C   0  0  0  0  0  0  0  0  0  0  0  0
    5.3943   -8.6644   15.5656 C   0  0  0  0  0  0  0  0  0  0  0  0
    6.6852   -9.1259   14.9572 C   0  0  0  0  0  0  0  0  0  0  0  0
    7.7034   -8.8316   15.7435 N   0  0  0  0  0  0  0  0  0  0  0  0
    7.1058   -7.7327   16.4444 N   0  0  0  0  0  0  0  0  0  0  0  0
    8.0990   -6.1947   16.9580 C   0  0  0  0  0  0  0  0  0  0  0  0
    9.5919   -6.1783   18.1152 C   0  0  0  0  0  0  0  0  0  0  0  0
   10.6518   -4.9128   17.9278 C   0  0  0  0  0  0  0  0  0  0  0  0
   10.0276   -3.6952   17.0075 C   0  0  0  0  0  0  0  0  0  0  0  0
    8.2755   -4.1200   16.6431 C   0  0  0  0  0  0  0  0  0  0  0  0
    6.5234  -11.4312   14.5327 H   0  0  0  0  0  0  0  0  0  0  0  0
    5.0831  -10.7464   13.6865 H   0  0  0  0  0  0  0  0  0  0  0  0
    5.1738  -12.4403   14.0639 H   0  0  0  0  0  0  0  0  0  0  0  0
    3.1619  -12.0373   16.6988 H   0  0  0  0  0  0  0  0  0  0  0  0
    2.7384  -10.6516   15.5906 H   0  0  0  0  0  0  0  0  0  0  0  0
   -0.1665  -14.2761   13.1075 H   0  0  0  0  0  0  0  0  0  0  0  0
    1.2711  -14.9267   13.6194 H   0  0  0  0  0  0  0  0  0  0  0  0
    0.8191  -16.5584   15.0586 H   0  0  0  0  0  0  0  0  0  0  0  0
   -0.8508  -16.4368   14.3118 H   0  0  0  0  0  0  0  0  0  0  0  0
   -1.5297  -14.9005   15.9753 H   0  0  0  0  0  0  0  0  0  0  0  0
    0.0780  -15.2187   16.8149 H   0  0  0  0  0  0  0  0  0  0  0  0
   -0.2272  -13.2656   15.6379 H   0  0  0  0  0  0  0  0  0  0  0  0
   -0.4759  -12.9782   14.2566 H   0  0  0  0  0  0  0  0  0  0  0  0
    4.4212   -8.8348   15.1115 H   0  0  0  0  0  0  0  0  0  0  0  0
    6.8877   -9.5047   13.9604 H   0  0  0  0  0  0  0  0  0  0  0  0
    7.1574   -6.3949   17.4167 H   0  0  0  0  0  0  0  0  0  0  0  0
    9.3102   -6.1414   19.1658 H   0  0  0  0  0  0  0  0  0  0  0  0
   10.1818   -7.1038   18.1238 H   0  0  0  0  0  0  0  0  0  0  0  0
   10.8943   -4.5293   18.9362 H   0  0  0  0  0  0  0  0  0  0  0  0
   11.6635   -5.2141   17.6481 H   0  0  0  0  0  0  0  0  0  0  0  0
   10.0957   -2.7242   17.5203 H   0  0  0  0  0  0  0  0  0  0  0  0
   10.5959   -3.5351   16.0853 H   0  0  0  0  0  0  0  0  0  0  0  0
    7.4870   -3.3859   16.6607 H   0  0  0  0  0  0  0  0  0  0  0  0
    8.3128   -4.0102   15.5621 H   0  0  0  0  0  0  0  0  0  0  0  0
  1  2  1  0
  2  3  1  0
  3  4  1  0
  4  5  2  0
  4  6  1  0
  6  7  1  0
  7  8  1  0
  8  9  1  0
  9 10  1  0
  2 11  1  0
 11 12  2  0
 11 13  1  0
 13 14  2  0
 14 15  1  0
 15 16  2  0
 16 17  1  0
 17 18  1  0
 18 19  1  0
 19 20  1  0
 20 21  1  0
 21 22  1  0
 10  6  1  0
 17 13  1  0
 22 18  1  0
  1 23  1  0
  1 24  1  0
  1 25  1  0
  3 26  1  0
  3 27  1  0
  7 28  1  0
  7 29  1  0
  8 30  1  0
  8 31  1  0
  9 32  1  0
  9 33  1  0
 10 34  1  0
 10 35  1  0
 14 36  1  0
 15 37  1  0
 18 38  1  0
 19 39  1  0
 19 40  1  0
 20 41  1  0
 20 42  1  0
 21 43  1  0
 21 44  1  0
 22 45  1  0
 22 46  1  0
M  END
>  <Energy>  (1046) 
1262.4916364160053

>  <compound_id>  (1046) 
8738

>  <target_id>  (1046) 
1

>  <reference_id>  (1046) 
96

>  <inspiration_ids>  (1046) 
[96, 124]

>  <energy_score>  (1046) 
1217.4127616710653

>  <distance_score>  (1046) 
15.087783767160586

>  <path>  (1046) 
/opt/xchem-fragalysis-2/maxwin/BulkDock/SCRATCH/511015/C8738-P96/C8738-P96.minimised.mol

>  <scratch_subdir>  (1046) 
/opt/xchem-fragalysis-2/maxwin/BulkDock/SCRATCH/511015/C8738-P96

>  <fragmenstein_runtime>  (1046) 
29.528074026107788

>  <fragmenstein_outcome>  (1046) 
too moved

>  <fragmenstein_mode>  (1046) 
expansion

>  <fragmenstein_error>  (1046) 


$$$$
C8738-P124
     RDKit          3D

 46 48  0  0  0  0  0  0  0  0999 V2000
    8.6011  -10.4238   19.0982 C   0  0  0  0  0  0  0  0  0  0  0  0
    7.2733   -9.8692   19.2103 N   0  0  0  0  0  0  0  0  0  0  0  0
    5.8812  -11.0810   19.2651 C   0  0  0  0  0  0  0  0  0  0  0  0
    5.3393  -11.4946   21.1651 C   0  0  0  0  0  0  0  0  0  0  0  0
    6.0480  -10.9541   21.8873 O   0  0  0  0  0  0  0  0  0  0  0  0
    3.9472  -12.4058   21.4906 N   0  0  0  0  0  0  0  0  0  0  0  0
    3.3233  -12.8792   23.3683 C   0  0  0  0  0  0  0  0  0  0  0  0
    3.7184  -14.2450   24.3289 C   0  0  0  0  0  0  0  0  0  0  0  0
    2.8884  -14.3723   23.2249 C   0  0  0  0  0  0  0  0  0  0  0  0
    3.2237  -12.6775   22.5740 C   0  0  0  0  0  0  0  0  0  0  0  0
    7.2892   -8.1465   19.2857 C   0  0  0  0  0  0  0  0  0  0  0  0
    7.3584   -7.8325   20.4098 O   0  0  0  0  0  0  0  0  0  0  0  0
    7.4796   -6.5922   18.2348 C   0  0  0  0  0  0  0  0  0  0  0  0
    7.4292   -6.1580   16.4021 C   0  0  0  0  0  0  0  0  0  0  0  0
    9.2035   -7.1949   15.6787 C   0  0  0  0  0  0  0  0  0  0  0  0
   10.5259   -6.5033   16.8765 N   0  0  0  0  0  0  0  0  0  0  0  0
    9.5567   -6.2186   18.6677 N   0  0  0  0  0  0  0  0  0  0  0  0
   11.0279   -5.5697   19.8175 C   0  0  0  0  0  0  0  0  0  0  0  0
   12.3343   -6.1401   20.8505 C   0  0  0  0  0  0  0  0  0  0  0  0
   13.7638   -5.6209   20.5698 C   0  0  0  0  0  0  0  0  0  0  0  0
   13.5578   -4.3628   19.8055 C   0  0  0  0  0  0  0  0  0  0  0  0
   12.4282   -4.6929   18.8596 C   0  0  0  0  0  0  0  0  0  0  0  0
    9.3369   -9.7415   19.5170 H   0  0  0  0  0  0  0  0  0  0  0  0
    8.8049  -10.5342   18.0285 H   0  0  0  0  0  0  0  0  0  0  0  0
    8.7150  -11.3990   19.5445 H   0  0  0  0  0  0  0  0  0  0  0  0
    6.4064  -12.0037   19.4320 H   0  0  0  0  0  0  0  0  0  0  0  0
    5.5311  -11.2581   18.2540 H   0  0  0  0  0  0  0  0  0  0  0  0
    2.2917  -12.4223   24.0354 H   0  0  0  0  0  0  0  0  0  0  0  0
    3.9699  -12.4538   24.1336 H   0  0  0  0  0  0  0  0  0  0  0  0
    3.5361  -14.0390   25.3685 H   0  0  0  0  0  0  0  0  0  0  0  0
    4.5538  -14.9590   24.2797 H   0  0  0  0  0  0  0  0  0  0  0  0
    3.4306  -15.1516   22.7705 H   0  0  0  0  0  0  0  0  0  0  0  0
    1.8242  -14.5414   23.3592 H   0  0  0  0  0  0  0  0  0  0  0  0
    2.2146  -11.9476   22.5721 H   0  0  0  0  0  0  0  0  0  0  0  0
    3.1593  -13.3609   21.5737 H   0  0  0  0  0  0  0  0  0  0  0  0
    6.4240   -6.4324   16.0149 H   0  0  0  0  0  0  0  0  0  0  0  0
    9.4266   -8.1660   15.2812 H   0  0  0  0  0  0  0  0  0  0  0  0
   10.3574   -5.0923   20.4721 H   0  0  0  0  0  0  0  0  0  0  0  0
   12.2628   -5.4992   21.7509 H   0  0  0  0  0  0  0  0  0  0  0  0
   12.2634   -7.1802   21.1913 H   0  0  0  0  0  0  0  0  0  0  0  0
   14.4346   -6.3003   20.0445 H   0  0  0  0  0  0  0  0  0  0  0  0
   14.2902   -5.4128   21.5115 H   0  0  0  0  0  0  0  0  0  0  0  0
   14.4622   -4.0556   19.2713 H   0  0  0  0  0  0  0  0  0  0  0  0
   13.2794   -3.5525   20.4804 H   0  0  0  0  0  0  0  0  0  0  0  0
   12.2165   -3.7693   18.3084 H   0  0  0  0  0  0  0  0  0  0  0  0
   12.7765   -5.2226   17.9918 H   0  0  0  0  0  0  0  0  0  0  0  0
  1  2  1  0
  2  3  1  0
  3  4  1  0
  4  5  2  0
  4  6  1  0
  6  7  1  0
  7  8  1  0
  8  9  1  0
  9 10  1  0
  2 11  1  0
 11 12  2  0
 11 13  1  0
 13 14  2  0
 14 15  1  0
 15 16  2  0
 16 17  1  0
 17 18  1  0
 18 19  1  0
 19 20  1  0
 20 21  1  0
 21 22  1  0
 10  6  1  0
 17 13  1  0
 22 18  1  0
  1 23  1  0
  1 24  1  0
  1 25  1  0
  3 26  1  0
  3 27  1  0
  7 28  1  0
  7 29  1  0
  8 30  1  0
  8 31  1  0
  9 32  1  0
  9 33  1  0
 10 34  1  0
 10 35  1  0
 14 36  1  0
 15 37  1  0
 18 38  1  0
 19 39  1  0
 19 40  1  0
 20 41  1  0
 20 42  1  0
 21 43  1  0
 21 44  1  0
 22 45  1  0
 22 46  1  0
M  END
>  <Energy>  (1047) 
2201.5024392055329

>  <compound_id>  (1047) 
8738

>  <target_id>  (1047) 
1

>  <reference_id>  (1047) 
124

>  <inspiration_ids>  (1047) 
[96, 124]

>  <energy_score>  (1047) 
2156.423564460639

>  <distance_score>  (1047) 
13.557636536043056

>  <path>  (1047) 
/opt/xchem-fragalysis-2/maxwin/BulkDock/SCRATCH/511015/C8738-P124/C8738-P124.minimised.mol

>  <scratch_subdir>  (1047) 
/opt/xchem-fragalysis-2/maxwin/BulkDock/SCRATCH/511015/C8738-P124

>  <fragmenstein_runtime>  (1047) 
39.745208740234375

>  <fragmenstein_outcome>  (1047) 
too moved

>  <fragmenstein_mode>  (1047) 
expansion

>  <fragmenstein_error>  (1047) 


$$$$
C8739-P96
     RDKit          3D

 55 57  0  0  0  0  0  0  0  0999 V2000
    7.0169   -8.4200   24.3640 C   0  0  0  0  0  0  0  0  0  0  0  0
    6.9557   -8.6178   22.9250 N   0  0  0  0  0  0  0  0  0  0  0  0
    6.0518   -9.8114   22.5240 C   0  0  0  0  0  0  0  0  0  0  0  0
    5.0788  -10.9334   23.6196 C   0  0  0  0  0  0  0  0  0  0  0  0
    3.8653  -12.4775   23.7267 N   0  0  0  0  0  0  0  0  0  0  0  0
    3.9076  -14.1926   22.9248 C   0  0  0  0  0  0  0  0  0  0  0  0
    4.7489  -14.3814   22.1550 O   0  0  0  0  0  0  0  0  0  0  0  0
    2.6093  -15.8859   23.4946 C   0  0  0  0  0  0  0  0  0  0  0  0
    0.8321  -16.9624   23.7388 N   0  0  0  0  0  0  0  0  0  0  0  0
   -0.4161  -16.5754   25.2335 C   0  0  0  0  0  0  0  0  0  0  0  0
   -2.2397  -17.1183   24.7096 C   0  0  0  0  0  0  0  0  0  0  0  0
   -2.1187  -18.2710   23.1164 C   0  0  0  0  0  0  0  0  0  0  0  0
   -0.2313  -18.0451   22.4907 C   0  0  0  0  0  0  0  0  0  0  0  0
    8.3771   -8.6857   22.3934 C   0  0  0  0  0  0  0  0  0  0  0  0
    8.9997   -7.3337   22.0268 C   0  0  0  0  0  0  0  0  0  0  0  0
    8.6673   -6.0306   22.4760 C   0  0  0  0  0  0  0  0  0  0  0  0
    9.6154   -5.1936   21.9380 C   0  0  0  0  0  0  0  0  0  0  0  0
   10.4440   -5.9836   21.2002 N   0  0  0  0  0  0  0  0  0  0  0  0
   11.6827   -5.5556   20.5615 C   0  0  0  0  0  0  0  0  0  0  0  0
   11.6903   -5.7946   19.0485 C   0  0  0  0  0  0  0  0  0  0  0  0
   12.9580   -6.5907   18.7544 C   0  0  0  0  0  0  0  0  0  0  0  0
   13.2516   -7.3258   20.0496 C   0  0  0  0  0  0  0  0  0  0  0  0
   12.9128   -6.2920   21.1132 C   0  0  0  0  0  0  0  0  0  0  0  0
   10.0537   -7.2782   21.1856 N   0  0  0  0  0  0  0  0  0  0  0  0
    6.0125   -8.2428   24.7630 H   0  0  0  0  0  0  0  0  0  0  0  0
    7.6126   -7.5456   24.6418 H   0  0  0  0  0  0  0  0  0  0  0  0
    7.4378   -9.2910   24.8781 H   0  0  0  0  0  0  0  0  0  0  0  0
    5.3841   -9.3790   21.7871 H   0  0  0  0  0  0  0  0  0  0  0  0
    6.7771  -10.4441   22.0396 H   0  0  0  0  0  0  0  0  0  0  0  0
    6.0877  -11.2006   24.0257 H   0  0  0  0  0  0  0  0  0  0  0  0
    4.8117  -10.3353   24.4967 H   0  0  0  0  0  0  0  0  0  0  0  0
    3.0604  -12.4144   24.2983 H   0  0  0  0  0  0  0  0  0  0  0  0
    2.7645  -15.8018   24.5865 H   0  0  0  0  0  0  0  0  0  0  0  0
    3.1310  -16.8151   23.3003 H   0  0  0  0  0  0  0  0  0  0  0  0
   -0.3239  -15.7373   25.8753 H   0  0  0  0  0  0  0  0  0  0  0  0
   -0.1076  -17.2072   26.0969 H   0  0  0  0  0  0  0  0  0  0  0  0
   -2.6716  -17.7166   25.5222 H   0  0  0  0  0  0  0  0  0  0  0  0
   -2.8294  -16.2230   24.5022 H   0  0  0  0  0  0  0  0  0  0  0  0
   -2.8534  -18.2749   22.3074 H   0  0  0  0  0  0  0  0  0  0  0  0
   -2.2332  -19.3171   23.4809 H   0  0  0  0  0  0  0  0  0  0  0  0
    0.1064  -19.0694   22.6039 H   0  0  0  0  0  0  0  0  0  0  0  0
   -0.3790  -17.5733   21.5130 H   0  0  0  0  0  0  0  0  0  0  0  0
    9.0257   -9.1694   23.1372 H   0  0  0  0  0  0  0  0  0  0  0  0
    8.4349   -9.3412   21.5197 H   0  0  0  0  0  0  0  0  0  0  0  0
    7.8650   -5.7433   23.1407 H   0  0  0  0  0  0  0  0  0  0  0  0
    9.7764   -4.1287   22.0474 H   0  0  0  0  0  0  0  0  0  0  0  0
   11.7817   -4.4830   20.7703 H   0  0  0  0  0  0  0  0  0  0  0  0
   10.8062   -6.3528   18.7296 H   0  0  0  0  0  0  0  0  0  0  0  0
   11.6918   -4.8496   18.4946 H   0  0  0  0  0  0  0  0  0  0  0  0
   12.8349   -7.2737   17.9092 H   0  0  0  0  0  0  0  0  0  0  0  0
   13.7803   -5.9052   18.5167 H   0  0  0  0  0  0  0  0  0  0  0  0
   14.2916   -7.6585   20.1115 H   0  0  0  0  0  0  0  0  0  0  0  0
   12.6042   -8.2050   20.1453 H   0  0  0  0  0  0  0  0  0  0  0  0
   13.7470   -5.5849   21.2050 H   0  0  0  0  0  0  0  0  0  0  0  0
   12.7557   -6.7484   22.0958 H   0  0  0  0  0  0  0  0  0  0  0  0
  1  2  1  0
  2  3  1  0
  3  4  1  0
  4  5  1  0
  5  6  1  0
  6  7  2  0
  6  8  1  0
  8  9  1  0
  9 10  1  0
 10 11  1  0
 11 12  1  0
 12 13  1  0
  2 14  1  0
 14 15  1  0
 15 16  1  0
 16 17  2  0
 17 18  1  0
 18 19  1  0
 19 20  1  0
 20 21  1  0
 21 22  1  0
 22 23  1  0
 18 24  1  0
 13  9  1  0
 24 15  2  0
 23 19  1  0
  1 25  1  0
  1 26  1  0
  1 27  1  0
  3 28  1  0
  3 29  1  0
  4 30  1  0
  4 31  1  0
  5 32  1  0
  8 33  1  0
  8 34  1  0
 10 35  1  0
 10 36  1  0
 11 37  1  0
 11 38  1  0
 12 39  1  0
 12 40  1  0
 13 41  1  0
 13 42  1  0
 14 43  1  0
 14 44  1  0
 16 45  1  0
 17 46  1  0
 19 47  1  0
 20 48  1  0
 20 49  1  0
 21 50  1  0
 21 51  1  0
 22 52  1  0
 22 53  1  0
 23 54  1  0
 23 55  1  0
M  END
>  <Energy>  (1048) 
921.65782504492404

>  <compound_id>  (1048) 
8739

>  <target_id>  (1048) 
1

>  <reference_id>  (1048) 
96

>  <inspiration_ids>  (1048) 
[96, 124]

>  <energy_score>  (1048) 
788.8692249669955

>  <distance_score>  (1048) 
12.417511547445747

>  <path>  (1048) 
/opt/xchem-fragalysis-2/maxwin/BulkDock/SCRATCH/511015/C8739-P96/C8739-P96.minimised.mol

>  <scratch_subdir>  (1048) 
/opt/xchem-fragalysis-2/maxwin/BulkDock/SCRATCH/511015/C8739-P96

>  <fragmenstein_runtime>  (1048) 
24.36693549156189

>  <fragmenstein_outcome>  (1048) 
too moved

>  <fragmenstein_mode>  (1048) 
expansion

>  <fragmenstein_error>  (1048) 


$$$$
C8739-P124
     RDKit          3D

 55 57  0  0  0  0  0  0  0  0999 V2000
    9.8096  -10.7991   19.0203 C   0  0  0  0  0  0  0  0  0  0  0  0
    8.7100   -9.7884   19.2411 N   0  0  0  0  0  0  0  0  0  0  0  0
    7.0218  -10.8948   19.5514 C   0  0  0  0  0  0  0  0  0  0  0  0
    5.5654  -11.8977   20.7639 C   0  0  0  0  0  0  0  0  0  0  0  0
    4.0722  -11.7278   22.1580 N   0  0  0  0  0  0  0  0  0  0  0  0
    3.1322  -13.0326   23.1456 C   0  0  0  0  0  0  0  0  0  0  0  0
    3.1930  -14.2842   23.0571 O   0  0  0  0  0  0  0  0  0  0  0  0
    2.0615  -12.5902   24.5311 C   0  0  0  0  0  0  0  0  0  0  0  0
    1.3020  -13.2854   26.1672 N   0  0  0  0  0  0  0  0  0  0  0  0
    0.0487  -12.6910   26.8058 C   0  0  0  0  0  0  0  0  0  0  0  0
   -0.3044  -13.4507   28.1146 C   0  0  0  0  0  0  0  0  0  0  0  0
    0.9662  -14.1338   28.5344 C   0  0  0  0  0  0  0  0  0  0  0  0
    1.9770  -13.5963   27.5257 C   0  0  0  0  0  0  0  0  0  0  0  0
    9.5672   -8.0244   19.7773 C   0  0  0  0  0  0  0  0  0  0  0  0
    9.9714   -5.9228   19.3522 C   0  0  0  0  0  0  0  0  0  0  0  0
   11.6547   -5.5336   20.1383 C   0  0  0  0  0  0  0  0  0  0  0  0
   12.6361   -4.8938   19.3434 C   0  0  0  0  0  0  0  0  0  0  0  0
   12.1337   -4.6755   18.0545 N   0  0  0  0  0  0  0  0  0  0  0  0
   12.6586   -3.6995   17.1165 C   0  0  0  0  0  0  0  0  0  0  0  0
   11.8475   -3.2416   15.9031 C   0  0  0  0  0  0  0  0  0  0  0  0
   12.8296   -2.4154   15.0643 C   0  0  0  0  0  0  0  0  0  0  0  0
   14.2147   -2.6307   15.6845 C   0  0  0  0  0  0  0  0  0  0  0  0
   14.0696   -3.8630   16.5774 C   0  0  0  0  0  0  0  0  0  0  0  0
   10.6741   -5.2826   17.8619 N   0  0  0  0  0  0  0  0  0  0  0  0
   10.7846  -10.4378   19.3439 H   0  0  0  0  0  0  0  0  0  0  0  0
    9.8504  -11.0835   17.9635 H   0  0  0  0  0  0  0  0  0  0  0  0
    9.6811  -11.7109   19.6083 H   0  0  0  0  0  0  0  0  0  0  0  0
    6.9945  -10.1927   20.2222 H   0  0  0  0  0  0  0  0  0  0  0  0
    7.6876  -11.7143   19.7619 H   0  0  0  0  0  0  0  0  0  0  0  0
    5.8971  -11.1518   21.4453 H   0  0  0  0  0  0  0  0  0  0  0  0
    4.9269  -12.2371   19.9740 H   0  0  0  0  0  0  0  0  0  0  0  0
    3.8728  -10.8296   22.5079 H   0  0  0  0  0  0  0  0  0  0  0  0
    1.6015  -11.7286   24.1968 H   0  0  0  0  0  0  0  0  0  0  0  0
    1.5060  -13.4025   24.1422 H   0  0  0  0  0  0  0  0  0  0  0  0
   -0.8884  -12.7662   26.2574 H   0  0  0  0  0  0  0  0  0  0  0  0
    0.2410  -11.6532   27.0852 H   0  0  0  0  0  0  0  0  0  0  0  0
   -0.6431  -12.7401   28.8774 H   0  0  0  0  0  0  0  0  0  0  0  0
   -1.1161  -14.1705   27.9719 H   0  0  0  0  0  0  0  0  0  0  0  0
    1.2398  -13.8295   29.5529 H   0  0  0  0  0  0  0  0  0  0  0  0
    0.9242  -15.2192   28.5679 H   0  0  0  0  0  0  0  0  0  0  0  0
    2.2200  -12.6672   28.0610 H   0  0  0  0  0  0  0  0  0  0  0  0
    2.8981  -14.1873   27.5191 H   0  0  0  0  0  0  0  0  0  0  0  0
   10.1625   -8.3154   20.6656 H   0  0  0  0  0  0  0  0  0  0  0  0
    8.6497   -7.7160   19.9508 H   0  0  0  0  0  0  0  0  0  0  0  0
   12.0723   -6.1193   20.9409 H   0  0  0  0  0  0  0  0  0  0  0  0
   13.6453   -4.5978   19.5893 H   0  0  0  0  0  0  0  0  0  0  0  0
   12.7668   -2.8135   17.7197 H   0  0  0  0  0  0  0  0  0  0  0  0
   11.4493   -4.0766   15.3327 H   0  0  0  0  0  0  0  0  0  0  0  0
   10.9919   -2.6202   16.1658 H   0  0  0  0  0  0  0  0  0  0  0  0
   12.7874   -2.7191   14.0147 H   0  0  0  0  0  0  0  0  0  0  0  0
   12.5714   -1.3522   15.0783 H   0  0  0  0  0  0  0  0  0  0  0  0
   14.4781   -1.7608   16.2989 H   0  0  0  0  0  0  0  0  0  0  0  0
   15.0042   -2.7395   14.9360 H   0  0  0  0  0  0  0  0  0  0  0  0
   14.1581   -4.7733   15.9956 H   0  0  0  0  0  0  0  0  0  0  0  0
   14.8312   -3.8798   17.3632 H   0  0  0  0  0  0  0  0  0  0  0  0
  1  2  1  0
  2  3  1  0
  3  4  1  0
  4  5  1  0
  5  6  1  0
  6  7  2  0
  6  8  1  0
  8  9  1  0
  9 10  1  0
 10 11  1  0
 11 12  1  0
 12 13  1  0
  2 14  1  0
 14 15  1  0
 15 16  1  0
 16 17  2  0
 17 18  1  0
 18 19  1  0
 19 20  1  0
 20 21  1  0
 21 22  1  0
 22 23  1  0
 18 24  1  0
 13  9  1  0
 24 15  2  0
 23 19  1  0
  1 25  1  0
  1 26  1  0
  1 27  1  0
  3 28  1  0
  3 29  1  0
  4 30  1  0
  4 31  1  0
  5 32  1  0
  8 33  1  0
  8 34  1  0
 10 35  1  0
 10 36  1  0
 11 37  1  0
 11 38  1  0
 12 39  1  0
 12 40  1  0
 13 41  1  0
 13 42  1  0
 14 43  1  0
 14 44  1  0
 16 45  1  0
 17 46  1  0
 19 47  1  0
 20 48  1  0
 20 49  1  0
 21 50  1  0
 21 51  1  0
 22 52  1  0
 22 53  1  0
 23 54  1  0
 23 55  1  0
M  END
>  <Energy>  (1049) 
1215.6943751638407

>  <compound_id>  (1049) 
8739

>  <target_id>  (1049) 
1

>  <reference_id>  (1049) 
124

>  <inspiration_ids>  (1049) 
[96, 124]

>  <energy_score>  (1049) 
1082.905775085917

>  <distance_score>  (1049) 
12.477693581278624

>  <path>  (1049) 
/opt/xchem-fragalysis-2/maxwin/BulkDock/SCRATCH/511015/C8739-P124/C8739-P124.minimised.mol

>  <scratch_subdir>  (1049) 
/opt/xchem-fragalysis-2/maxwin/BulkDock/SCRATCH/511015/C8739-P124

>  <fragmenstein_runtime>  (1049) 
32.113937854766846

>  <fragmenstein_outcome>  (1049) 
too moved

>  <fragmenstein_mode>  (1049) 
expansion

>  <fragmenstein_error>  (1049) 


$$$$
C8740-P96
     RDKit          3D

 58 60  0  0  0  0  0  0  0  0999 V2000
    6.6795   -9.3358   12.3588 C   0  0  0  0  0  0  0  0  0  0  0  0
    7.2343   -9.3497   13.8581 C   0  0  0  0  0  0  0  0  0  0  0  0
    6.7623   -9.2998   15.6517 C   0  0  0  0  0  0  0  0  0  0  0  0
    5.2652  -10.2171   16.9310 C   0  0  0  0  0  0  0  0  0  0  0  0
    3.7261  -11.3688   17.2845 N   0  0  0  0  0  0  0  0  0  0  0  0
    3.2882  -12.9980   16.6904 C   0  0  0  0  0  0  0  0  0  0  0  0
    3.9145  -13.7711   15.9956 O   0  0  0  0  0  0  0  0  0  0  0  0
    1.6546  -13.6532   16.9885 C   0  0  0  0  0  0  0  0  0  0  0  0
    0.5813  -14.7531   16.0252 N   0  0  0  0  0  0  0  0  0  0  0  0
   -0.0038  -15.9430   16.7448 C   0  0  0  0  0  0  0  0  0  0  0  0
   -1.2601  -16.3670   16.0095 C   0  0  0  0  0  0  0  0  0  0  0  0
   -1.8583  -15.0356   15.6734 C   0  0  0  0  0  0  0  0  0  0  0  0
   -0.6369  -14.1256   15.4486 C   0  0  0  0  0  0  0  0  0  0  0  0
    8.5404   -9.6559   15.6383 N   0  0  0  0  0  0  0  0  0  0  0  0
    9.5910  -10.0710   14.6137 C   0  0  0  0  0  0  0  0  0  0  0  0
   11.0392  -10.0978   15.1123 C   0  0  0  0  0  0  0  0  0  0  0  0
   12.1014  -10.8776   14.6006 C   0  0  0  0  0  0  0  0  0  0  0  0
   13.2383  -10.4007   15.2107 C   0  0  0  0  0  0  0  0  0  0  0  0
   12.8376   -9.3896   16.0286 N   0  0  0  0  0  0  0  0  0  0  0  0
   13.6521   -8.4749   16.8023 C   0  0  0  0  0  0  0  0  0  0  0  0
   15.1224   -8.8646   16.9710 C   0  0  0  0  0  0  0  0  0  0  0  0
   15.5900   -7.9498   18.0910 C   0  0  0  0  0  0  0  0  0  0  0  0
   14.4098   -7.8832   19.0535 C   0  0  0  0  0  0  0  0  0  0  0  0
   13.1803   -8.3183   18.2553 C   0  0  0  0  0  0  0  0  0  0  0  0
   11.5017   -9.2205   16.0174 N   0  0  0  0  0  0  0  0  0  0  0  0
    5.7103   -8.8870   12.1508 H   0  0  0  0  0  0  0  0  0  0  0  0
    6.6648  -10.3485   11.9310 H   0  0  0  0  0  0  0  0  0  0  0  0
    7.4071   -8.8080   11.7294 H   0  0  0  0  0  0  0  0  0  0  0  0
    7.7011  -10.3356   13.7498 H   0  0  0  0  0  0  0  0  0  0  0  0
    7.9849   -8.5827   13.7444 H   0  0  0  0  0  0  0  0  0  0  0  0
    6.8971   -8.3191   16.0658 H   0  0  0  0  0  0  0  0  0  0  0  0
    4.6712   -9.3807   16.9538 H   0  0  0  0  0  0  0  0  0  0  0  0
    5.7153  -10.3681   17.8990 H   0  0  0  0  0  0  0  0  0  0  0  0
    3.0283  -11.0286   17.9007 H   0  0  0  0  0  0  0  0  0  0  0  0
    1.2502  -12.9455   16.3361 H   0  0  0  0  0  0  0  0  0  0  0  0
    2.2132  -14.5474   16.8416 H   0  0  0  0  0  0  0  0  0  0  0  0
   -0.3123  -15.7045   17.7681 H   0  0  0  0  0  0  0  0  0  0  0  0
    0.6716  -16.7975   16.7156 H   0  0  0  0  0  0  0  0  0  0  0  0
   -1.0050  -16.9151   15.0948 H   0  0  0  0  0  0  0  0  0  0  0  0
   -1.9214  -16.9902   16.6179 H   0  0  0  0  0  0  0  0  0  0  0  0
   -2.4525  -14.6671   16.5178 H   0  0  0  0  0  0  0  0  0  0  0  0
   -2.5073  -15.0798   14.7938 H   0  0  0  0  0  0  0  0  0  0  0  0
   -0.8881  -13.1618   15.8661 H   0  0  0  0  0  0  0  0  0  0  0  0
   -0.4732  -13.9889   14.3742 H   0  0  0  0  0  0  0  0  0  0  0  0
    8.7541  -10.2688   16.4017 H   0  0  0  0  0  0  0  0  0  0  0  0
    9.3856  -11.1013   14.2927 H   0  0  0  0  0  0  0  0  0  0  0  0
    9.6488   -9.4227   13.7336 H   0  0  0  0  0  0  0  0  0  0  0  0
   12.0549  -11.6403   13.8364 H   0  0  0  0  0  0  0  0  0  0  0  0
   14.2765  -10.6692   15.0824 H   0  0  0  0  0  0  0  0  0  0  0  0
   13.6002   -7.5040   16.2940 H   0  0  0  0  0  0  0  0  0  0  0  0
   15.2259   -9.9133   17.2766 H   0  0  0  0  0  0  0  0  0  0  0  0
   15.7022   -8.7177   16.0542 H   0  0  0  0  0  0  0  0  0  0  0  0
   16.5001   -8.3158   18.5752 H   0  0  0  0  0  0  0  0  0  0  0  0
   15.8005   -6.9497   17.6933 H   0  0  0  0  0  0  0  0  0  0  0  0
   14.2913   -6.8726   19.4581 H   0  0  0  0  0  0  0  0  0  0  0  0
   14.5631   -8.5596   19.9019 H   0  0  0  0  0  0  0  0  0  0  0  0
   12.3692   -7.5872   18.3403 H   0  0  0  0  0  0  0  0  0  0  0  0
   12.8012   -9.2677   18.6548 H   0  0  0  0  0  0  0  0  0  0  0  0
  1  2  1  0
  2  3  1  0
  3  4  1  0
  4  5  1  0
  5  6  1  0
  6  7  2  0
  6  8  1  0
  8  9  1  0
  9 10  1  0
 10 11  1  0
 11 12  1  0
 12 13  1  0
  3 14  1  0
 14 15  1  0
 15 16  1  0
 16 17  1  0
 17 18  2  0
 18 19  1  0
 19 20  1  0
 20 21  1  0
 21 22  1  0
 22 23  1  0
 23 24  1  0
 19 25  1  0
 13  9  1  0
 25 16  2  0
 24 20  1  0
  1 26  1  0
  1 27  1  0
  1 28  1  0
  2 29  1  0
  2 30  1  0
  3 31  1  0
  4 32  1  0
  4 33  1  0
  5 34  1  0
  8 35  1  0
  8 36  1  0
 10 37  1  0
 10 38  1  0
 11 39  1  0
 11 40  1  0
 12 41  1  0
 12 42  1  0
 13 43  1  0
 13 44  1  0
 14 45  1  0
 15 46  1  0
 15 47  1  0
 17 48  1  0
 18 49  1  0
 20 50  1  0
 21 51  1  0
 21 52  1  0
 22 53  1  0
 22 54  1  0
 23 55  1  0
 23 56  1  0
 24 57  1  0
 24 58  1  0
M  END
>  <Energy>  (1050) 
647.24618073860142

>  <compound_id>  (1050) 
8740

>  <target_id>  (1050) 
1

>  <reference_id>  (1050) 
96

>  <inspiration_ids>  (1050) 
[96, 124]

>  <energy_score>  (1050) 
512.54720840564

>  <distance_score>  (1050) 
13.67729858615415

>  <path>  (1050) 
/opt/xchem-fragalysis-2/maxwin/BulkDock/SCRATCH/511015/C8740-P96/C8740-P96.minimised.mol

>  <scratch_subdir>  (1050) 
/opt/xchem-fragalysis-2/maxwin/BulkDock/SCRATCH/511015/C8740-P96

>  <fragmenstein_runtime>  (1050) 
32.57370209693909

>  <fragmenstein_outcome>  (1050) 
too moved

>  <fragmenstein_mode>  (1050) 
expansion

>  <fragmenstein_error>  (1050) 


$$$$
C8740-P124
     RDKit          3D

 58 60  0  0  0  0  0  0  0  0999 V2000
   10.2717  -11.8462   15.1357 C   0  0  0  0  0  0  0  0  0  0  0  0
    9.7105  -12.0479   16.5481 C   0  0  0  0  0  0  0  0  0  0  0  0
    9.3678  -10.8330   17.4940 C   0  0  0  0  0  0  0  0  0  0  0  0
    7.9674  -10.8792   19.0168 C   0  0  0  0  0  0  0  0  0  0  0  0
    6.3139  -11.2354   20.0620 N   0  0  0  0  0  0  0  0  0  0  0  0
    5.3340  -12.6704   20.2601 C   0  0  0  0  0  0  0  0  0  0  0  0
    5.5466  -13.6629   19.6479 O   0  0  0  0  0  0  0  0  0  0  0  0
    3.7902  -12.8206   21.6551 C   0  0  0  0  0  0  0  0  0  0  0  0
    3.1456  -13.9401   23.2263 N   0  0  0  0  0  0  0  0  0  0  0  0
    3.8391  -15.0469   24.1644 C   0  0  0  0  0  0  0  0  0  0  0  0
    2.9204  -15.7270   25.2129 C   0  0  0  0  0  0  0  0  0  0  0  0
    1.9325  -14.6667   25.4784 C   0  0  0  0  0  0  0  0  0  0  0  0
    2.0073  -13.8211   24.1889 C   0  0  0  0  0  0  0  0  0  0  0  0
   11.1901  -10.3392   17.3959 N   0  0  0  0  0  0  0  0  0  0  0  0
   11.9046   -9.1710   16.1102 C   0  0  0  0  0  0  0  0  0  0  0  0
   12.2015   -7.1602   16.2059 C   0  0  0  0  0  0  0  0  0  0  0  0
   13.1549   -6.0189   16.0820 C   0  0  0  0  0  0  0  0  0  0  0  0
   12.8726   -4.9530   16.9471 C   0  0  0  0  0  0  0  0  0  0  0  0
   11.7313   -4.7709   16.2655 N   0  0  0  0  0  0  0  0  0  0  0  0
   11.7663   -3.6250   15.3135 C   0  0  0  0  0  0  0  0  0  0  0  0
   13.0331   -2.6993   15.5019 C   0  0  0  0  0  0  0  0  0  0  0  0
   12.8603   -1.5191   14.5754 C   0  0  0  0  0  0  0  0  0  0  0  0
   11.3986   -1.5933   14.2080 C   0  0  0  0  0  0  0  0  0  0  0  0
   10.7217   -2.5460   15.2093 C   0  0  0  0  0  0  0  0  0  0  0  0
   11.2776   -6.1700   16.0030 N   0  0  0  0  0  0  0  0  0  0  0  0
    9.7403  -11.0539   14.6127 H   0  0  0  0  0  0  0  0  0  0  0  0
   10.1286  -12.7659   14.5552 H   0  0  0  0  0  0  0  0  0  0  0  0
   11.3460  -11.6540   15.1192 H   0  0  0  0  0  0  0  0  0  0  0  0
    8.8005  -12.5270   16.3054 H   0  0  0  0  0  0  0  0  0  0  0  0
   10.3714  -12.7710   17.0429 H   0  0  0  0  0  0  0  0  0  0  0  0
    8.9314  -10.1397   16.7921 H   0  0  0  0  0  0  0  0  0  0  0  0
    8.4841  -11.6338   19.5859 H   0  0  0  0  0  0  0  0  0  0  0  0
    8.1315   -9.8754   19.2445 H   0  0  0  0  0  0  0  0  0  0  0  0
    6.0210  -10.5663   20.7169 H   0  0  0  0  0  0  0  0  0  0  0  0
    3.1830  -13.3553   20.9823 H   0  0  0  0  0  0  0  0  0  0  0  0
    3.6925  -11.8809   22.1831 H   0  0  0  0  0  0  0  0  0  0  0  0
    4.5682  -14.6203   24.8542 H   0  0  0  0  0  0  0  0  0  0  0  0
    4.2892  -15.8660   23.6569 H   0  0  0  0  0  0  0  0  0  0  0  0
    2.4365  -16.6506   24.8954 H   0  0  0  0  0  0  0  0  0  0  0  0
    3.4848  -15.9862   26.1170 H   0  0  0  0  0  0  0  0  0  0  0  0
    2.1778  -14.1361   26.3946 H   0  0  0  0  0  0  0  0  0  0  0  0
    0.9302  -15.0818   25.6451 H   0  0  0  0  0  0  0  0  0  0  0  0
    1.1361  -14.3417   23.7589 H   0  0  0  0  0  0  0  0  0  0  0  0
    1.9482  -12.7660   24.3909 H   0  0  0  0  0  0  0  0  0  0  0  0
   11.6646  -11.2144   17.1601 H   0  0  0  0  0  0  0  0  0  0  0  0
   12.7559   -9.6905   15.6502 H   0  0  0  0  0  0  0  0  0  0  0  0
   11.0030   -9.4746   15.5519 H   0  0  0  0  0  0  0  0  0  0  0  0
   14.1193   -6.0786   15.5944 H   0  0  0  0  0  0  0  0  0  0  0  0
   13.4904   -4.1744   17.3659 H   0  0  0  0  0  0  0  0  0  0  0  0
   11.7840   -4.0128   14.2992 H   0  0  0  0  0  0  0  0  0  0  0  0
   13.0652   -2.3310   16.5303 H   0  0  0  0  0  0  0  0  0  0  0  0
   13.9984   -3.1800   15.3373 H   0  0  0  0  0  0  0  0  0  0  0  0
   13.1321   -0.5797   15.0617 H   0  0  0  0  0  0  0  0  0  0  0  0
   13.4886   -1.6154   13.6827 H   0  0  0  0  0  0  0  0  0  0  0  0
   10.9157   -0.6214   14.1239 H   0  0  0  0  0  0  0  0  0  0  0  0
   11.3898   -2.0551   13.2196 H   0  0  0  0  0  0  0  0  0  0  0  0
    9.7595   -2.9010   14.8497 H   0  0  0  0  0  0  0  0  0  0  0  0
   10.5864   -2.0568   16.1595 H   0  0  0  0  0  0  0  0  0  0  0  0
  1  2  1  0
  2  3  1  0
  3  4  1  0
  4  5  1  0
  5  6  1  0
  6  7  2  0
  6  8  1  0
  8  9  1  0
  9 10  1  0
 10 11  1  0
 11 12  1  0
 12 13  1  0
  3 14  1  0
 14 15  1  0
 15 16  1  0
 16 17  1  0
 17 18  2  0
 18 19  1  0
 19 20  1  0
 20 21  1  0
 21 22  1  0
 22 23  1  0
 23 24  1  0
 19 25  1  0
 13  9  1  0
 25 16  2  0
 24 20  1  0
  1 26  1  0
  1 27  1  0
  1 28  1  0
  2 29  1  0
  2 30  1  0
  3 31  1  0
  4 32  1  0
  4 33  1  0
  5 34  1  0
  8 35  1  0
  8 36  1  0
 10 37  1  0
 10 38  1  0
 11 39  1  0
 11 40  1  0
 12 41  1  0
 12 42  1  0
 13 43  1  0
 13 44  1  0
 14 45  1  0
 15 46  1  0
 15 47  1  0
 17 48  1  0
 18 49  1  0
 20 50  1  0
 21 51  1  0
 21 52  1  0
 22 53  1  0
 22 54  1  0
 23 55  1  0
 23 56  1  0
 24 57  1  0
 24 58  1  0
M  END
>  <Energy>  (1051) 
950.92508641867221

>  <compound_id>  (1051) 
8740

>  <target_id>  (1051) 
1

>  <reference_id>  (1051) 
124

>  <inspiration_ids>  (1051) 
[96, 124]

>  <energy_score>  (1051) 
816.2261140857173

>  <distance_score>  (1051) 
12.212073009322616

>  <path>  (1051) 
/opt/xchem-fragalysis-2/maxwin/BulkDock/SCRATCH/511015/C8740-P124/C8740-P124.minimised.mol

>  <scratch_subdir>  (1051) 
/opt/xchem-fragalysis-2/maxwin/BulkDock/SCRATCH/511015/C8740-P124

>  <fragmenstein_runtime>  (1051) 
45.6569287776947

>  <fragmenstein_outcome>  (1051) 
too moved

>  <fragmenstein_mode>  (1051) 
expansion

>  <fragmenstein_error>  (1051) 


$$$$
C8741-P96
     RDKit          3D

 45 47  0  0  0  0  0  0  0  0999 V2000
    9.5422  -10.0432   14.7937 C   0  0  0  0  0  0  0  0  0  0  0  0
    8.9909  -11.1458   15.4530 C   0  0  0  0  0  0  0  0  0  0  0  0
    9.9315  -11.5495   16.3888 C   0  0  0  0  0  0  0  0  0  0  0  0
    9.8876  -12.6995   17.3808 C   0  0  0  0  0  0  0  0  0  0  0  0
    8.6290  -13.5054   17.3078 N   0  0  0  0  0  0  0  0  0  0  0  0
    8.6346  -14.7970   18.1082 C   0  0  0  0  0  0  0  0  0  0  0  0
    7.3193  -15.7390   17.9745 C   0  0  0  0  0  0  0  0  0  0  0  0
    7.1982  -16.9991   18.7115 N   0  0  0  0  0  0  0  0  0  0  0  0
    8.1264  -18.0854   18.5129 C   0  0  0  0  0  0  0  0  0  0  0  0
    7.5894  -19.1813   19.4275 C   0  0  0  0  0  0  0  0  0  0  0  0
    7.1197  -18.3927   20.6204 C   0  0  0  0  0  0  0  0  0  0  0  0
    6.6851  -17.0326   20.0628 C   0  0  0  0  0  0  0  0  0  0  0  0
   10.9894  -10.6530   16.2226 N   0  0  0  0  0  0  0  0  0  0  0  0
   12.2874  -10.5986   16.8840 C   0  0  0  0  0  0  0  0  0  0  0  0
   13.4802  -10.6119   15.9061 C   0  0  0  0  0  0  0  0  0  0  0  0
   14.5640   -9.8252   16.6234 C   0  0  0  0  0  0  0  0  0  0  0  0
   13.7873   -8.6879   17.2601 C   0  0  0  0  0  0  0  0  0  0  0  0
   12.5031   -9.3425   17.7576 C   0  0  0  0  0  0  0  0  0  0  0  0
   10.7203   -9.6966   15.3034 N   0  0  0  0  0  0  0  0  0  0  0  0
    9.1232   -9.4657   13.9783 H   0  0  0  0  0  0  0  0  0  0  0  0
    8.0292  -11.6033   15.2674 H   0  0  0  0  0  0  0  0  0  0  0  0
   10.7412  -13.3567   17.1779 H   0  0  0  0  0  0  0  0  0  0  0  0
    9.9885  -12.2987   18.3954 H   0  0  0  0  0  0  0  0  0  0  0  0
    8.4805  -13.7584   16.3307 H   0  0  0  0  0  0  0  0  0  0  0  0
    9.4944  -15.3935   17.7807 H   0  0  0  0  0  0  0  0  0  0  0  0
    8.7852  -14.5513   19.1638 H   0  0  0  0  0  0  0  0  0  0  0  0
    6.4222  -15.1401   18.1260 H   0  0  0  0  0  0  0  0  0  0  0  0
    7.2740  -16.0006   16.9081 H   0  0  0  0  0  0  0  0  0  0  0  0
    9.1380  -17.7959   18.8211 H   0  0  0  0  0  0  0  0  0  0  0  0
    8.1633  -18.4239   17.4730 H   0  0  0  0  0  0  0  0  0  0  0  0
    6.7577  -19.7264   18.9732 H   0  0  0  0  0  0  0  0  0  0  0  0
    8.3623  -19.9098   19.6910 H   0  0  0  0  0  0  0  0  0  0  0  0
    6.3488  -18.9253   21.1690 H   0  0  0  0  0  0  0  0  0  0  0  0
    7.9702  -18.2484   21.2999 H   0  0  0  0  0  0  0  0  0  0  0  0
    7.1141  -16.2318   20.6720 H   0  0  0  0  0  0  0  0  0  0  0  0
    5.6001  -16.9536   20.0638 H   0  0  0  0  0  0  0  0  0  0  0  0
   12.3494  -11.4836   17.5287 H   0  0  0  0  0  0  0  0  0  0  0  0
   13.2411  -10.1241   14.9538 H   0  0  0  0  0  0  0  0  0  0  0  0
   13.8010  -11.6333   15.6768 H   0  0  0  0  0  0  0  0  0  0  0  0
   15.0384  -10.4437   17.3942 H   0  0  0  0  0  0  0  0  0  0  0  0
   15.3404   -9.4688   15.9406 H   0  0  0  0  0  0  0  0  0  0  0  0
   14.3440   -8.2025   18.0669 H   0  0  0  0  0  0  0  0  0  0  0  0
   13.5520   -7.9269   16.5074 H   0  0  0  0  0  0  0  0  0  0  0  0
   11.6679   -8.6375   17.7367 H   0  0  0  0  0  0  0  0  0  0  0  0
   12.6321   -9.6533   18.8018 H   0  0  0  0  0  0  0  0  0  0  0  0
  1  2  1  0
  2  3  2  0
  3  4  1  0
  4  5  1  0
  5  6  1  0
  6  7  1  0
  7  8  1  0
  8  9  1  0
  9 10  1  0
 10 11  1  0
 11 12  1  0
  3 13  1  0
 13 14  1  0
 14 15  1  0
 15 16  1  0
 16 17  1  0
 17 18  1  0
 13 19  1  0
 19  1  2  0
 12  8  1  0
 18 14  1  0
  1 20  1  0
  2 21  1  0
  4 22  1  0
  4 23  1  0
  5 24  1  0
  6 25  1  0
  6 26  1  0
  7 27  1  0
  7 28  1  0
  9 29  1  0
  9 30  1  0
 10 31  1  0
 10 32  1  0
 11 33  1  0
 11 34  1  0
 12 35  1  0
 12 36  1  0
 14 37  1  0
 15 38  1  0
 15 39  1  0
 16 40  1  0
 16 41  1  0
 17 42  1  0
 17 43  1  0
 18 44  1  0
 18 45  1  0
M  END
>  <Energy>  (1052) 
37.358999558262227

>  <compound_id>  (1052) 
8741

>  <target_id>  (1052) 
1

>  <reference_id>  (1052) 
96

>  <inspiration_ids>  (1052) 
[96, 124]

>  <energy_score>  (1052) 
-23.37806563434515

>  <distance_score>  (1052) 
15.281807178813807

>  <path>  (1052) 
/opt/xchem-fragalysis-2/maxwin/BulkDock/SCRATCH/511015/C8741-P96/C8741-P96.minimised.mol

>  <scratch_subdir>  (1052) 
/opt/xchem-fragalysis-2/maxwin/BulkDock/SCRATCH/511015/C8741-P96

>  <fragmenstein_runtime>  (1052) 
21.39334487915039

>  <fragmenstein_outcome>  (1052) 
too moved

>  <fragmenstein_mode>  (1052) 
expansion

>  <fragmenstein_error>  (1052) 


$$$$
C8741-P124
     RDKit          3D

 45 47  0  0  0  0  0  0  0  0999 V2000
    4.6853   -8.7260   11.9914 C   0  0  0  0  0  0  0  0  0  0  0  0
    3.4175   -9.0276   12.4861 C   0  0  0  0  0  0  0  0  0  0  0  0
    3.6042   -9.6118   13.7329 C   0  0  0  0  0  0  0  0  0  0  0  0
    2.4944  -10.0366   14.6698 C   0  0  0  0  0  0  0  0  0  0  0  0
    2.1300  -11.4841   14.6152 N   0  0  0  0  0  0  0  0  0  0  0  0
    0.6291  -11.7909   14.4716 C   0  0  0  0  0  0  0  0  0  0  0  0
    0.0990  -13.2634   14.9589 C   0  0  0  0  0  0  0  0  0  0  0  0
   -1.3513  -13.5713   14.8595 N   0  0  0  0  0  0  0  0  0  0  0  0
   -2.2044  -13.1387   15.9730 C   0  0  0  0  0  0  0  0  0  0  0  0
   -3.5037  -13.8684   15.6350 C   0  0  0  0  0  0  0  0  0  0  0  0
   -3.0211  -15.2665   15.3138 C   0  0  0  0  0  0  0  0  0  0  0  0
   -1.6617  -15.0074   14.6557 C   0  0  0  0  0  0  0  0  0  0  0  0
    4.9816   -9.5992   13.9170 N   0  0  0  0  0  0  0  0  0  0  0  0
    5.8570  -10.0424   14.9811 C   0  0  0  0  0  0  0  0  0  0  0  0
    5.3204  -10.3455   16.3685 C   0  0  0  0  0  0  0  0  0  0  0  0
    6.3635  -11.2498   17.0357 C   0  0  0  0  0  0  0  0  0  0  0  0
    7.3468  -11.6533   15.9428 C   0  0  0  0  0  0  0  0  0  0  0  0
    6.6438  -11.3105   14.6404 C   0  0  0  0  0  0  0  0  0  0  0  0
    5.6361   -9.0571   12.8495 N   0  0  0  0  0  0  0  0  0  0  0  0
    4.9551   -8.2794   11.0441 H   0  0  0  0  0  0  0  0  0  0  0  0
    2.4669   -8.8494   12.0032 H   0  0  0  0  0  0  0  0  0  0  0  0
    1.6095   -9.4425   14.4048 H   0  0  0  0  0  0  0  0  0  0  0  0
    2.7251   -9.7570   15.7009 H   0  0  0  0  0  0  0  0  0  0  0  0
    2.5834  -11.8934   13.7932 H   0  0  0  0  0  0  0  0  0  0  0  0
    0.0450  -11.0318   15.0020 H   0  0  0  0  0  0  0  0  0  0  0  0
    0.3791  -11.6841   13.4087 H   0  0  0  0  0  0  0  0  0  0  0  0
    0.6407  -13.9668   14.3120 H   0  0  0  0  0  0  0  0  0  0  0  0
    0.4494  -13.4534   15.9690 H   0  0  0  0  0  0  0  0  0  0  0  0
   -2.3422  -12.0537   15.9776 H   0  0  0  0  0  0  0  0  0  0  0  0
   -1.8030  -13.4573   16.9402 H   0  0  0  0  0  0  0  0  0  0  0  0
   -3.9560  -13.4205   14.7390 H   0  0  0  0  0  0  0  0  0  0  0  0
   -4.2687  -13.8389   16.4046 H   0  0  0  0  0  0  0  0  0  0  0  0
   -3.7105  -15.7962   14.6499 H   0  0  0  0  0  0  0  0  0  0  0  0
   -2.9010  -15.8520   16.2298 H   0  0  0  0  0  0  0  0  0  0  0  0
   -1.7244  -15.1965   13.5780 H   0  0  0  0  0  0  0  0  0  0  0  0
   -0.8985  -15.6790   15.0515 H   0  0  0  0  0  0  0  0  0  0  0  0
    6.5355   -9.2065   15.1135 H   0  0  0  0  0  0  0  0  0  0  0  0
    4.3866  -10.9033   16.3236 H   0  0  0  0  0  0  0  0  0  0  0  0
    5.1303   -9.4344   16.9445 H   0  0  0  0  0  0  0  0  0  0  0  0
    5.8767  -12.1347   17.4615 H   0  0  0  0  0  0  0  0  0  0  0  0
    6.8771  -10.7408   17.8575 H   0  0  0  0  0  0  0  0  0  0  0  0
    8.2695  -11.0694   16.0376 H   0  0  0  0  0  0  0  0  0  0  0  0
    7.6170  -12.7119   16.0003 H   0  0  0  0  0  0  0  0  0  0  0  0
    5.9545  -12.1186   14.3619 H   0  0  0  0  0  0  0  0  0  0  0  0
    7.3451  -11.1895   13.8115 H   0  0  0  0  0  0  0  0  0  0  0  0
  1  2  1  0
  2  3  2  0
  3  4  1  0
  4  5  1  0
  5  6  1  0
  6  7  1  0
  7  8  1  0
  8  9  1  0
  9 10  1  0
 10 11  1  0
 11 12  1  0
  3 13  1  0
 13 14  1  0
 14 15  1  0
 15 16  1  0
 16 17  1  0
 17 18  1  0
 13 19  1  0
 19  1  2  0
 12  8  1  0
 18 14  1  0
  1 20  1  0
  2 21  1  0
  4 22  1  0
  4 23  1  0
  5 24  1  0
  6 25  1  0
  6 26  1  0
  7 27  1  0
  7 28  1  0
  9 29  1  0
  9 30  1  0
 10 31  1  0
 10 32  1  0
 11 33  1  0
 11 34  1  0
 12 35  1  0
 12 36  1  0
 14 37  1  0
 15 38  1  0
 15 39  1  0
 16 40  1  0
 16 41  1  0
 17 42  1  0
 17 43  1  0
 18 44  1  0
 18 45  1  0
M  END
>  <Energy>  (1053) 
45.886196167833511

>  <compound_id>  (1053) 
8741

>  <target_id>  (1053) 
1

>  <reference_id>  (1053) 
124

>  <inspiration_ids>  (1053) 
[96, 124]

>  <energy_score>  (1053) 
-14.85086902477434

>  <distance_score>  (1053) 
15.217445879893537

>  <path>  (1053) 
/opt/xchem-fragalysis-2/maxwin/BulkDock/SCRATCH/511015/C8741-P124/C8741-P124.minimised.mol

>  <scratch_subdir>  (1053) 
/opt/xchem-fragalysis-2/maxwin/BulkDock/SCRATCH/511015/C8741-P124

>  <fragmenstein_runtime>  (1053) 
22.516600608825684

>  <fragmenstein_outcome>  (1053) 
too moved

>  <fragmenstein_mode>  (1053) 
expansion

>  <fragmenstein_error>  (1053) 


$$$$
C8742-P96
     RDKit          3D

 43 45  0  0  0  0  0  0  0  0999 V2000
    5.8704  -11.4093   13.5970 O   0  0  0  0  0  0  0  0  0  0  0  0
    5.2998  -11.2608   14.6368 C   0  0  0  0  0  0  0  0  0  0  0  0
    3.9471  -11.5634   15.0145 N   0  0  0  0  0  0  0  0  0  0  0  0
    2.8204  -12.0550   14.2277 C   0  0  0  0  0  0  0  0  0  0  0  0
    2.6094  -13.5908   14.1268 C   0  0  0  0  0  0  0  0  0  0  0  0
    3.5062  -14.3913   14.3545 O   0  0  0  0  0  0  0  0  0  0  0  0
    1.3356  -13.9377   13.6572 N   0  0  0  0  0  0  0  0  0  0  0  0
    0.0364  -14.3009   14.2506 C   0  0  0  0  0  0  0  0  0  0  0  0
   -0.4320  -15.8493   14.3642 C   0  0  0  0  0  0  0  0  0  0  0  0
   -0.0297  -15.6416   15.7163 C   0  0  0  0  0  0  0  0  0  0  0  0
    0.2828  -14.2013   15.1284 C   0  0  0  0  0  0  0  0  0  0  0  0
    6.1005  -10.6428   15.7399 C   0  0  0  0  0  0  0  0  0  0  0  0
    5.8416  -10.4724   17.1208 C   0  0  0  0  0  0  0  0  0  0  0  0
    6.8472   -9.9058   17.8001 N   0  0  0  0  0  0  0  0  0  0  0  0
    7.7860   -9.6961   16.8561 N   0  0  0  0  0  0  0  0  0  0  0  0
    9.0912   -9.1864   17.2433 C   0  0  0  0  0  0  0  0  0  0  0  0
    9.0249   -7.9882   18.2070 C   0  0  0  0  0  0  0  0  0  0  0  0
   10.2790   -8.1179   19.0542 C   0  0  0  0  0  0  0  0  0  0  0  0
   10.3526   -9.6178   19.2969 C   0  0  0  0  0  0  0  0  0  0  0  0
    9.9663  -10.2350   17.9555 C   0  0  0  0  0  0  0  0  0  0  0  0
    7.3785  -10.0950   15.6138 C   0  0  0  0  0  0  0  0  0  0  0  0
    3.7834  -11.2263   15.9560 H   0  0  0  0  0  0  0  0  0  0  0  0
    1.9189  -11.6037   14.6538 H   0  0  0  0  0  0  0  0  0  0  0  0
    2.9514  -11.6834   13.2056 H   0  0  0  0  0  0  0  0  0  0  0  0
   -0.8715  -13.4870   13.9827 H   0  0  0  0  0  0  0  0  0  0  0  0
   -0.2385  -14.4776   13.1317 H   0  0  0  0  0  0  0  0  0  0  0  0
    0.1838  -16.5400   13.7807 H   0  0  0  0  0  0  0  0  0  0  0  0
   -1.5079  -15.9858   14.2220 H   0  0  0  0  0  0  0  0  0  0  0  0
    0.8226  -16.2416   16.0146 H   0  0  0  0  0  0  0  0  0  0  0  0
   -0.8339  -15.6347   16.4553 H   0  0  0  0  0  0  0  0  0  0  0  0
   -0.1677  -13.2480   15.6962 H   0  0  0  0  0  0  0  0  0  0  0  0
    1.1712  -14.0573   15.8694 H   0  0  0  0  0  0  0  0  0  0  0  0
    4.9593  -10.7694   17.6735 H   0  0  0  0  0  0  0  0  0  0  0  0
    9.6102   -8.9069   16.3224 H   0  0  0  0  0  0  0  0  0  0  0  0
    8.1508   -8.0423   18.8669 H   0  0  0  0  0  0  0  0  0  0  0  0
    8.9587   -7.0325   17.6886 H   0  0  0  0  0  0  0  0  0  0  0  0
   10.2104   -7.5501   19.9865 H   0  0  0  0  0  0  0  0  0  0  0  0
   11.1657   -7.7795   18.5086 H   0  0  0  0  0  0  0  0  0  0  0  0
    9.6255   -9.9111   20.0638 H   0  0  0  0  0  0  0  0  0  0  0  0
   11.3439   -9.9382   19.6303 H   0  0  0  0  0  0  0  0  0  0  0  0
   10.8729  -10.4096   17.3625 H   0  0  0  0  0  0  0  0  0  0  0  0
    9.4771  -11.2044   18.0847 H   0  0  0  0  0  0  0  0  0  0  0  0
    8.0124   -9.9996   14.7413 H   0  0  0  0  0  0  0  0  0  0  0  0
  1  2  2  0
  2  3  1  0
  3  4  1  0
  4  5  1  0
  5  6  2  0
  5  7  1  0
  7  8  1  0
  8  9  1  0
  9 10  1  0
 10 11  1  0
  2 12  1  0
 12 13  1  0
 13 14  2  0
 14 15  1  0
 15 16  1  0
 16 17  1  0
 17 18  1  0
 18 19  1  0
 19 20  1  0
 15 21  1  0
 11  7  1  0
 21 12  2  0
 20 16  1  0
  3 22  1  0
  4 23  1  0
  4 24  1  0
  8 25  1  0
  8 26  1  0
  9 27  1  0
  9 28  1  0
 10 29  1  0
 10 30  1  0
 11 31  1  0
 11 32  1  0
 13 33  1  0
 16 34  1  0
 17 35  1  0
 17 36  1  0
 18 37  1  0
 18 38  1  0
 19 39  1  0
 19 40  1  0
 20 41  1  0
 20 42  1  0
 21 43  1  0
M  END
>  <Energy>  (1054) 
563.08432459744142

>  <compound_id>  (1054) 
8742

>  <target_id>  (1054) 
1

>  <reference_id>  (1054) 
96

>  <inspiration_ids>  (1054) 
[96, 124]

>  <energy_score>  (1054) 
518.7070671461516

>  <distance_score>  (1054) 
15.311019979347629

>  <path>  (1054) 
/opt/xchem-fragalysis-2/maxwin/BulkDock/SCRATCH/511015/C8742-P96/C8742-P96.minimised.mol

>  <scratch_subdir>  (1054) 
/opt/xchem-fragalysis-2/maxwin/BulkDock/SCRATCH/511015/C8742-P96

>  <fragmenstein_runtime>  (1054) 
19.006985425949097

>  <fragmenstein_outcome>  (1054) 
too moved

>  <fragmenstein_mode>  (1054) 
expansion

>  <fragmenstein_error>  (1054) 


$$$$
C8742-P124
     RDKit          3D

 43 45  0  0  0  0  0  0  0  0999 V2000
    3.3470  -10.9293   22.5657 O   0  0  0  0  0  0  0  0  0  0  0  0
    3.6901  -12.0106   22.3676 C   0  0  0  0  0  0  0  0  0  0  0  0
    2.8791  -13.3220   23.2956 N   0  0  0  0  0  0  0  0  0  0  0  0
    1.5214  -13.2964   24.4155 C   0  0  0  0  0  0  0  0  0  0  0  0
   -0.4639  -14.0907   24.5932 C   0  0  0  0  0  0  0  0  0  0  0  0
   -1.0885  -14.8436   23.8533 O   0  0  0  0  0  0  0  0  0  0  0  0
   -1.5206  -13.5442   25.9474 N   0  0  0  0  0  0  0  0  0  0  0  0
   -2.4242  -12.3609   26.0466 C   0  0  0  0  0  0  0  0  0  0  0  0
   -3.5187  -12.7642   27.0501 C   0  0  0  0  0  0  0  0  0  0  0  0
   -2.7148  -13.4287   28.1240 C   0  0  0  0  0  0  0  0  0  0  0  0
   -1.7037  -14.2127   27.3042 C   0  0  0  0  0  0  0  0  0  0  0  0
    5.0429  -11.9970   21.0392 C   0  0  0  0  0  0  0  0  0  0  0  0
    6.2961  -11.1663   22.0865 C   0  0  0  0  0  0  0  0  0  0  0  0
    7.5728  -11.2796   21.8393 N   0  0  0  0  0  0  0  0  0  0  0  0
    7.4884  -11.3579   20.5493 N   0  0  0  0  0  0  0  0  0  0  0  0
    8.7563  -10.9246   19.9234 C   0  0  0  0  0  0  0  0  0  0  0  0
    9.4235   -9.6411   20.4794 C   0  0  0  0  0  0  0  0  0  0  0  0
   10.1641   -9.9936   21.7545 C   0  0  0  0  0  0  0  0  0  0  0  0
   10.5748  -11.4484   21.5457 C   0  0  0  0  0  0  0  0  0  0  0  0
    9.9201  -11.9053   20.2315 C   0  0  0  0  0  0  0  0  0  0  0  0
    6.1845  -11.8603   20.1879 C   0  0  0  0  0  0  0  0  0  0  0  0
    3.2134  -14.1989   22.9602 H   0  0  0  0  0  0  0  0  0  0  0  0
    1.6564  -12.1898   24.3200 H   0  0  0  0  0  0  0  0  0  0  0  0
    1.7741  -13.2877   25.5021 H   0  0  0  0  0  0  0  0  0  0  0  0
   -1.8685  -11.5145   26.4634 H   0  0  0  0  0  0  0  0  0  0  0  0
   -2.9956  -12.1074   25.1649 H   0  0  0  0  0  0  0  0  0  0  0  0
   -4.2171  -13.4750   26.5916 H   0  0  0  0  0  0  0  0  0  0  0  0
   -4.0848  -11.9015   27.4126 H   0  0  0  0  0  0  0  0  0  0  0  0
   -3.3095  -14.0630   28.7872 H   0  0  0  0  0  0  0  0  0  0  0  0
   -2.2041  -12.6777   28.7386 H   0  0  0  0  0  0  0  0  0  0  0  0
   -2.1519  -15.1987   27.1628 H   0  0  0  0  0  0  0  0  0  0  0  0
   -0.7566  -14.2339   27.8517 H   0  0  0  0  0  0  0  0  0  0  0  0
    6.0109  -10.9091   23.1151 H   0  0  0  0  0  0  0  0  0  0  0  0
    8.5841  -10.7452   18.8635 H   0  0  0  0  0  0  0  0  0  0  0  0
    8.8167   -8.7420   20.5122 H   0  0  0  0  0  0  0  0  0  0  0  0
   10.2307   -9.3987   19.8163 H   0  0  0  0  0  0  0  0  0  0  0  0
    9.5330   -9.8854   22.6417 H   0  0  0  0  0  0  0  0  0  0  0  0
   11.0371   -9.3498   21.9064 H   0  0  0  0  0  0  0  0  0  0  0  0
   10.2346  -12.0639   22.3861 H   0  0  0  0  0  0  0  0  0  0  0  0
   11.6635  -11.5534   21.4893 H   0  0  0  0  0  0  0  0  0  0  0  0
    9.6194  -12.9499   20.3160 H   0  0  0  0  0  0  0  0  0  0  0  0
   10.6651  -11.8396   19.4277 H   0  0  0  0  0  0  0  0  0  0  0  0
    6.0133  -12.0729   19.1639 H   0  0  0  0  0  0  0  0  0  0  0  0
  1  2  2  0
  2  3  1  0
  3  4  1  0
  4  5  1  0
  5  6  2  0
  5  7  1  0
  7  8  1  0
  8  9  1  0
  9 10  1  0
 10 11  1  0
  2 12  1  0
 12 13  1  0
 13 14  2  0
 14 15  1  0
 15 16  1  0
 16 17  1  0
 17 18  1  0
 18 19  1  0
 19 20  1  0
 15 21  1  0
 11  7  1  0
 21 12  2  0
 20 16  1  0
  3 22  1  0
  4 23  1  0
  4 24  1  0
  8 25  1  0
  8 26  1  0
  9 27  1  0
  9 28  1  0
 10 29  1  0
 10 30  1  0
 11 31  1  0
 11 32  1  0
 13 33  1  0
 16 34  1  0
 17 35  1  0
 17 36  1  0
 18 37  1  0
 18 38  1  0
 19 39  1  0
 19 40  1  0
 20 41  1  0
 20 42  1  0
 21 43  1  0
M  END
>  <Energy>  (1055) 
516.52695622551857

>  <compound_id>  (1055) 
8742

>  <target_id>  (1055) 
1

>  <reference_id>  (1055) 
124

>  <inspiration_ids>  (1055) 
[96, 124]

>  <energy_score>  (1055) 
472.1496987742296

>  <distance_score>  (1055) 
14.019061630917

>  <path>  (1055) 
/opt/xchem-fragalysis-2/maxwin/BulkDock/SCRATCH/511015/C8742-P124/C8742-P124.minimised.mol

>  <scratch_subdir>  (1055) 
/opt/xchem-fragalysis-2/maxwin/BulkDock/SCRATCH/511015/C8742-P124

>  <fragmenstein_runtime>  (1055) 
32.85354447364807

>  <fragmenstein_outcome>  (1055) 
too moved

>  <fragmenstein_mode>  (1055) 
expansion

>  <fragmenstein_error>  (1055) 


$$$$
C8743-P96
     RDKit          3D

 58 60  0  0  0  0  0  0  0  0999 V2000
    7.8660   -8.9874   24.1278 C   0  0  0  0  0  0  0  0  0  0  0  0
    7.8890  -10.3199   23.4595 N   0  0  0  0  0  0  0  0  0  0  0  0
    6.5287  -11.0729   23.7813 C   0  0  0  0  0  0  0  0  0  0  0  0
    5.8454  -13.0213   23.7978 C   0  0  0  0  0  0  0  0  0  0  0  0
    3.9490  -13.0202   24.4691 N   0  0  0  0  0  0  0  0  0  0  0  0
    3.8909  -13.4640   22.8591 C   0  0  0  0  0  0  0  0  0  0  0  0
    3.1912  -14.0189   25.8817 C   0  0  0  0  0  0  0  0  0  0  0  0
    3.7643  -14.8531   26.4965 O   0  0  0  0  0  0  0  0  0  0  0  0
    1.3978  -13.9938   26.4220 C   0  0  0  0  0  0  0  0  0  0  0  0
    0.3993  -15.0128   27.5786 N   0  0  0  0  0  0  0  0  0  0  0  0
   -1.0161  -15.3953   27.2793 C   0  0  0  0  0  0  0  0  0  0  0  0
   -1.4783  -16.1921   28.4963 C   0  0  0  0  0  0  0  0  0  0  0  0
   -0.5802  -15.7014   29.6199 C   0  0  0  0  0  0  0  0  0  0  0  0
    0.2998  -14.6072   28.9955 C   0  0  0  0  0  0  0  0  0  0  0  0
    8.2192  -10.0631   22.0328 C   0  0  0  0  0  0  0  0  0  0  0  0
    9.4615   -9.1672   21.7754 C   0  0  0  0  0  0  0  0  0  0  0  0
   10.8293   -9.5465   21.8054 C   0  0  0  0  0  0  0  0  0  0  0  0
   11.5353   -8.4453   21.3797 C   0  0  0  0  0  0  0  0  0  0  0  0
   10.6122   -7.4726   21.1362 N   0  0  0  0  0  0  0  0  0  0  0  0
   10.8566   -6.1192   20.6644 C   0  0  0  0  0  0  0  0  0  0  0  0
   11.5291   -5.2351   21.7256 C   0  0  0  0  0  0  0  0  0  0  0  0
   12.5313   -4.3909   20.9515 C   0  0  0  0  0  0  0  0  0  0  0  0
   13.0191   -5.3360   19.8672 C   0  0  0  0  0  0  0  0  0  0  0  0
   11.7474   -6.0405   19.4131 C   0  0  0  0  0  0  0  0  0  0  0  0
    9.3487   -7.8780   21.3857 N   0  0  0  0  0  0  0  0  0  0  0  0
    8.8513   -8.5114   24.1314 H   0  0  0  0  0  0  0  0  0  0  0  0
    7.1327   -8.3155   23.6671 H   0  0  0  0  0  0  0  0  0  0  0  0
    7.6064   -9.0917   25.1873 H   0  0  0  0  0  0  0  0  0  0  0  0
    5.7601  -10.4870   23.2363 H   0  0  0  0  0  0  0  0  0  0  0  0
    6.3282  -10.6899   24.7678 H   0  0  0  0  0  0  0  0  0  0  0  0
    6.7565  -13.2895   24.3509 H   0  0  0  0  0  0  0  0  0  0  0  0
    5.8631  -13.8398   23.0461 H   0  0  0  0  0  0  0  0  0  0  0  0
    4.5824  -13.1850   22.1608 H   0  0  0  0  0  0  0  0  0  0  0  0
    3.0923  -12.8648   22.3996 H   0  0  0  0  0  0  0  0  0  0  0  0
    3.8935  -14.5311   22.6305 H   0  0  0  0  0  0  0  0  0  0  0  0
    1.2658  -13.5349   27.3554 H   0  0  0  0  0  0  0  0  0  0  0  0
    1.3812  -14.9958   26.0036 H   0  0  0  0  0  0  0  0  0  0  0  0
   -1.1270  -16.0044   26.3771 H   0  0  0  0  0  0  0  0  0  0  0  0
   -1.6564  -14.5055   27.2048 H   0  0  0  0  0  0  0  0  0  0  0  0
   -1.3415  -17.2686   28.3470 H   0  0  0  0  0  0  0  0  0  0  0  0
   -2.5362  -16.0125   28.7128 H   0  0  0  0  0  0  0  0  0  0  0  0
   -1.1582  -15.3133   30.4645 H   0  0  0  0  0  0  0  0  0  0  0  0
    0.0388  -16.5276   29.9886 H   0  0  0  0  0  0  0  0  0  0  0  0
    1.2650  -14.5392   29.5047 H   0  0  0  0  0  0  0  0  0  0  0  0
   -0.2129  -13.6456   29.0939 H   0  0  0  0  0  0  0  0  0  0  0  0
    7.3377   -9.6229   21.5653 H   0  0  0  0  0  0  0  0  0  0  0  0
    8.4231  -11.0196   21.5445 H   0  0  0  0  0  0  0  0  0  0  0  0
   11.2395  -10.5055   22.0865 H   0  0  0  0  0  0  0  0  0  0  0  0
   12.5952   -8.2796   21.2461 H   0  0  0  0  0  0  0  0  0  0  0  0
    9.8755   -5.7015   20.4150 H   0  0  0  0  0  0  0  0  0  0  0  0
   12.0544   -5.8328   22.4803 H   0  0  0  0  0  0  0  0  0  0  0  0
   10.8007   -4.6113   22.2543 H   0  0  0  0  0  0  0  0  0  0  0  0
   13.3447   -4.0268   21.5854 H   0  0  0  0  0  0  0  0  0  0  0  0
   12.0300   -3.5246   20.5037 H   0  0  0  0  0  0  0  0  0  0  0  0
   13.7257   -6.0621   20.2858 H   0  0  0  0  0  0  0  0  0  0  0  0
   13.5155   -4.8090   19.0474 H   0  0  0  0  0  0  0  0  0  0  0  0
   11.2489   -5.4201   18.6587 H   0  0  0  0  0  0  0  0  0  0  0  0
   11.9597   -7.0083   18.9482 H   0  0  0  0  0  0  0  0  0  0  0  0
  1  2  1  0
  2  3  1  0
  3  4  1  0
  4  5  1  0
  5  6  1  0
  5  7  1  0
  7  8  2  0
  7  9  1  0
  9 10  1  0
 10 11  1  0
 11 12  1  0
 12 13  1  0
 13 14  1  0
  2 15  1  0
 15 16  1  0
 16 17  1  0
 17 18  2  0
 18 19  1  0
 19 20  1  0
 20 21  1  0
 21 22  1  0
 22 23  1  0
 23 24  1  0
 19 25  1  0
 14 10  1  0
 25 16  2  0
 24 20  1  0
  1 26  1  0
  1 27  1  0
  1 28  1  0
  3 29  1  0
  3 30  1  0
  4 31  1  0
  4 32  1  0
  6 33  1  0
  6 34  1  0
  6 35  1  0
  9 36  1  0
  9 37  1  0
 11 38  1  0
 11 39  1  0
 12 40  1  0
 12 41  1  0
 13 42  1  0
 13 43  1  0
 14 44  1  0
 14 45  1  0
 15 46  1  0
 15 47  1  0
 17 48  1  0
 18 49  1  0
 20 50  1  0
 21 51  1  0
 21 52  1  0
 22 53  1  0
 22 54  1  0
 23 55  1  0
 23 56  1  0
 24 57  1  0
 24 58  1  0
M  END
>  <Energy>  (1056) 
622.11249420431113

>  <compound_id>  (1056) 
8743

>  <target_id>  (1056) 
1

>  <reference_id>  (1056) 
96

>  <inspiration_ids>  (1056) 
[96, 124]

>  <energy_score>  (1056) 
459.3441329850431

>  <distance_score>  (1056) 
12.844974998657575

>  <path>  (1056) 
/opt/xchem-fragalysis-2/maxwin/BulkDock/SCRATCH/511015/C8743-P96/C8743-P96.minimised.mol

>  <scratch_subdir>  (1056) 
/opt/xchem-fragalysis-2/maxwin/BulkDock/SCRATCH/511015/C8743-P96

>  <fragmenstein_runtime>  (1056) 
36.75520157814026

>  <fragmenstein_outcome>  (1056) 
too moved

>  <fragmenstein_mode>  (1056) 
expansion

>  <fragmenstein_error>  (1056) 


$$$$
C8743-P124
     RDKit          3D

 58 60  0  0  0  0  0  0  0  0999 V2000
    9.1985   -8.2105   19.8695 C   0  0  0  0  0  0  0  0  0  0  0  0
    7.5685   -7.1317   19.5615 N   0  0  0  0  0  0  0  0  0  0  0  0
    6.4732   -7.2083   21.3899 C   0  0  0  0  0  0  0  0  0  0  0  0
    4.6626   -7.6982   22.6657 C   0  0  0  0  0  0  0  0  0  0  0  0
    2.7388   -8.4414   22.1911 N   0  0  0  0  0  0  0  0  0  0  0  0
    3.4442  -10.0947   23.0668 C   0  0  0  0  0  0  0  0  0  0  0  0
    1.1370   -8.0600   22.8284 C   0  0  0  0  0  0  0  0  0  0  0  0
    0.8066   -7.3653   23.7457 O   0  0  0  0  0  0  0  0  0  0  0  0
    0.0616   -8.8185   21.7452 C   0  0  0  0  0  0  0  0  0  0  0  0
   -1.3545   -9.2340   22.1178 N   0  0  0  0  0  0  0  0  0  0  0  0
   -2.0664   -9.8556   20.9726 C   0  0  0  0  0  0  0  0  0  0  0  0
   -3.5512   -9.8252   21.3645 C   0  0  0  0  0  0  0  0  0  0  0  0
   -3.6120   -8.8719   22.5538 C   0  0  0  0  0  0  0  0  0  0  0  0
   -2.2537   -8.1597   22.5355 C   0  0  0  0  0  0  0  0  0  0  0  0
    9.3967   -5.9721   19.2265 C   0  0  0  0  0  0  0  0  0  0  0  0
   10.7129   -5.2258   17.6856 C   0  0  0  0  0  0  0  0  0  0  0  0
   11.8463   -5.8136   16.5199 C   0  0  0  0  0  0  0  0  0  0  0  0
   12.8751   -4.8937   16.4798 C   0  0  0  0  0  0  0  0  0  0  0  0
   12.0306   -3.9384   16.1912 N   0  0  0  0  0  0  0  0  0  0  0  0
   12.2262   -3.0363   15.0584 C   0  0  0  0  0  0  0  0  0  0  0  0
   11.7610   -1.7133   15.4849 C   0  0  0  0  0  0  0  0  0  0  0  0
   10.3103   -1.6374   15.1302 C   0  0  0  0  0  0  0  0  0  0  0  0
   10.0084   -2.9253   14.5371 C   0  0  0  0  0  0  0  0  0  0  0  0
   11.3140   -3.2473   13.8672 C   0  0  0  0  0  0  0  0  0  0  0  0
   10.9284   -3.9983   16.9424 N   0  0  0  0  0  0  0  0  0  0  0  0
    8.8166   -9.0605   19.2444 H   0  0  0  0  0  0  0  0  0  0  0  0
   10.1444   -8.4832   19.5349 H   0  0  0  0  0  0  0  0  0  0  0  0
    9.6805   -8.2591   20.8463 H   0  0  0  0  0  0  0  0  0  0  0  0
    6.8864   -6.3790   21.9522 H   0  0  0  0  0  0  0  0  0  0  0  0
    6.1806   -7.6932   20.4801 H   0  0  0  0  0  0  0  0  0  0  0  0
    4.7989   -7.8941   23.7715 H   0  0  0  0  0  0  0  0  0  0  0  0
    4.7421   -6.7824   23.2570 H   0  0  0  0  0  0  0  0  0  0  0  0
    2.8602  -11.0989   23.0728 H   0  0  0  0  0  0  0  0  0  0  0  0
    4.0205  -10.8246   22.3273 H   0  0  0  0  0  0  0  0  0  0  0  0
    4.4953   -9.8348   23.3121 H   0  0  0  0  0  0  0  0  0  0  0  0
    0.5546   -9.6851   21.3180 H   0  0  0  0  0  0  0  0  0  0  0  0
   -0.0176   -8.0841   20.9311 H   0  0  0  0  0  0  0  0  0  0  0  0
   -1.7327  -10.8770   20.7784 H   0  0  0  0  0  0  0  0  0  0  0  0
   -1.9287   -9.2646   20.0585 H   0  0  0  0  0  0  0  0  0  0  0  0
   -4.1510   -9.4426   20.5311 H   0  0  0  0  0  0  0  0  0  0  0  0
   -3.9437  -10.8112   21.6272 H   0  0  0  0  0  0  0  0  0  0  0  0
   -4.4415   -8.1634   22.4655 H   0  0  0  0  0  0  0  0  0  0  0  0
   -3.7466   -9.4279   23.4888 H   0  0  0  0  0  0  0  0  0  0  0  0
   -2.0096   -7.7417   23.5161 H   0  0  0  0  0  0  0  0  0  0  0  0
   -2.2646   -7.3407   21.8052 H   0  0  0  0  0  0  0  0  0  0  0  0
    9.0407   -4.9614   19.7035 H   0  0  0  0  0  0  0  0  0  0  0  0
   10.0939   -5.8977   20.1038 H   0  0  0  0  0  0  0  0  0  0  0  0
   12.0456   -6.8485   16.3084 H   0  0  0  0  0  0  0  0  0  0  0  0
   13.8911   -4.9093   16.1271 H   0  0  0  0  0  0  0  0  0  0  0  0
   13.2902   -2.9777   14.8332 H   0  0  0  0  0  0  0  0  0  0  0  0
   12.3646   -0.9133   15.0488 H   0  0  0  0  0  0  0  0  0  0  0  0
   11.7994   -1.7762   16.5469 H   0  0  0  0  0  0  0  0  0  0  0  0
   10.1035   -0.7836   14.4811 H   0  0  0  0  0  0  0  0  0  0  0  0
    9.6218   -1.6599   15.9539 H   0  0  0  0  0  0  0  0  0  0  0  0
    9.8007   -3.7471   15.1837 H   0  0  0  0  0  0  0  0  0  0  0  0
    8.9872   -2.7887   14.1877 H   0  0  0  0  0  0  0  0  0  0  0  0
   11.3335   -4.2206   13.4019 H   0  0  0  0  0  0  0  0  0  0  0  0
   11.5748   -2.5094   13.1063 H   0  0  0  0  0  0  0  0  0  0  0  0
  1  2  1  0
  2  3  1  0
  3  4  1  0
  4  5  1  0
  5  6  1  0
  5  7  1  0
  7  8  2  0
  7  9  1  0
  9 10  1  0
 10 11  1  0
 11 12  1  0
 12 13  1  0
 13 14  1  0
  2 15  1  0
 15 16  1  0
 16 17  1  0
 17 18  2  0
 18 19  1  0
 19 20  1  0
 20 21  1  0
 21 22  1  0
 22 23  1  0
 23 24  1  0
 19 25  1  0
 14 10  1  0
 25 16  2  0
 24 20  1  0
  1 26  1  0
  1 27  1  0
  1 28  1  0
  3 29  1  0
  3 30  1  0
  4 31  1  0
  4 32  1  0
  6 33  1  0
  6 34  1  0
  6 35  1  0
  9 36  1  0
  9 37  1  0
 11 38  1  0
 11 39  1  0
 12 40  1  0
 12 41  1  0
 13 42  1  0
 13 43  1  0
 14 44  1  0
 14 45  1  0
 15 46  1  0
 15 47  1  0
 17 48  1  0
 18 49  1  0
 20 50  1  0
 21 51  1  0
 21 52  1  0
 22 53  1  0
 22 54  1  0
 23 55  1  0
 23 56  1  0
 24 57  1  0
 24 58  1  0
M  END
>  <Energy>  (1057) 
1457.8101891875285

>  <compound_id>  (1057) 
8743

>  <target_id>  (1057) 
1

>  <reference_id>  (1057) 
124

>  <inspiration_ids>  (1057) 
[96, 124]

>  <energy_score>  (1057) 
1295.0418279682926

>  <distance_score>  (1057) 
12.874422767025605

>  <path>  (1057) 
/opt/xchem-fragalysis-2/maxwin/BulkDock/SCRATCH/511015/C8743-P124/C8743-P124.minimised.mol

>  <scratch_subdir>  (1057) 
/opt/xchem-fragalysis-2/maxwin/BulkDock/SCRATCH/511015/C8743-P124

>  <fragmenstein_runtime>  (1057) 
40.01717495918274

>  <fragmenstein_outcome>  (1057) 
too moved

>  <fragmenstein_mode>  (1057) 
expansion

>  <fragmenstein_error>  (1057) 


$$$$
C8744-P96
     RDKit          3D

 51 53  0  0  0  0  0  0  0  0999 V2000
   -0.6327  -14.4639   29.8610 C   0  0  0  0  0  0  0  0  0  0  0  0
   -0.2395  -15.5492   28.8460 C   0  0  0  0  0  0  0  0  0  0  0  0
    0.3021  -14.8599   27.4879 C   0  0  0  0  0  0  0  0  0  0  0  0
    1.5688  -14.1330   27.1681 O   0  0  0  0  0  0  0  0  0  0  0  0
    2.7124  -14.2998   25.9780 C   0  0  0  0  0  0  0  0  0  0  0  0
    3.5748  -12.6774   25.4057 C   0  0  0  0  0  0  0  0  0  0  0  0
    3.8940  -12.1051   26.3045 O   0  0  0  0  0  0  0  0  0  0  0  0
    4.1241  -11.9387   23.9030 N   0  0  0  0  0  0  0  0  0  0  0  0
    5.1650  -10.5588   23.5974 C   0  0  0  0  0  0  0  0  0  0  0  0
    5.4434   -9.5538   24.5897 C   0  0  0  0  0  0  0  0  0  0  0  0
    6.0536   -8.4318   23.9617 C   0  0  0  0  0  0  0  0  0  0  0  0
    6.2363   -8.6970   22.6653 N   0  0  0  0  0  0  0  0  0  0  0  0
    6.3397  -10.0613   22.7263 N   0  0  0  0  0  0  0  0  0  0  0  0
    7.7938  -10.4528   22.7850 C   0  0  0  0  0  0  0  0  0  0  0  0
    8.8596   -9.3606   22.3902 C   0  0  0  0  0  0  0  0  0  0  0  0
    9.8277   -9.2685   23.5642 C   0  0  0  0  0  0  0  0  0  0  0  0
    9.7813  -10.6521   24.1794 C   0  0  0  0  0  0  0  0  0  0  0  0
    8.2974  -10.9835   24.1379 C   0  0  0  0  0  0  0  0  0  0  0  0
   -1.3131  -16.5533   28.5547 N   0  0  0  0  0  0  0  0  0  0  0  0
   -2.5891  -16.0773   28.0234 C   0  0  0  0  0  0  0  0  0  0  0  0
   -3.4226  -17.3521   27.9979 C   0  0  0  0  0  0  0  0  0  0  0  0
   -2.9548  -18.1233   29.2238 C   0  0  0  0  0  0  0  0  0  0  0  0
   -1.6543  -17.4547   29.6577 C   0  0  0  0  0  0  0  0  0  0  0  0
   -0.9292  -14.8966   30.8210 H   0  0  0  0  0  0  0  0  0  0  0  0
    0.2215  -13.8072   30.0556 H   0  0  0  0  0  0  0  0  0  0  0  0
   -1.4578  -13.8413   29.5012 H   0  0  0  0  0  0  0  0  0  0  0  0
    0.5689  -16.0953   29.3276 H   0  0  0  0  0  0  0  0  0  0  0  0
    0.1214  -15.5670   26.6866 H   0  0  0  0  0  0  0  0  0  0  0  0
   -0.4411  -14.0549   27.4728 H   0  0  0  0  0  0  0  0  0  0  0  0
    2.5396  -15.1564   25.3252 H   0  0  0  0  0  0  0  0  0  0  0  0
    3.5336  -14.6179   26.6082 H   0  0  0  0  0  0  0  0  0  0  0  0
    3.7242  -12.4687   23.1380 H   0  0  0  0  0  0  0  0  0  0  0  0
    5.0186   -9.5328   25.5847 H   0  0  0  0  0  0  0  0  0  0  0  0
    6.2352   -7.4420   24.3607 H   0  0  0  0  0  0  0  0  0  0  0  0
    7.9420  -11.1984   22.0099 H   0  0  0  0  0  0  0  0  0  0  0  0
    8.4790   -8.3707   22.1325 H   0  0  0  0  0  0  0  0  0  0  0  0
    9.4111   -9.7189   21.5132 H   0  0  0  0  0  0  0  0  0  0  0  0
    9.4737   -8.5211   24.2841 H   0  0  0  0  0  0  0  0  0  0  0  0
   10.8360   -8.9860   23.2480 H   0  0  0  0  0  0  0  0  0  0  0  0
   10.1792  -10.6668   25.1982 H   0  0  0  0  0  0  0  0  0  0  0  0
   10.3607  -11.3574   23.5758 H   0  0  0  0  0  0  0  0  0  0  0  0
    7.8316  -10.4638   24.9761 H   0  0  0  0  0  0  0  0  0  0  0  0
    8.1116  -12.0512   24.2589 H   0  0  0  0  0  0  0  0  0  0  0  0
   -3.0561  -15.3374   28.6832 H   0  0  0  0  0  0  0  0  0  0  0  0
   -2.4920  -15.6496   27.0213 H   0  0  0  0  0  0  0  0  0  0  0  0
   -4.4956  -17.1422   28.0178 H   0  0  0  0  0  0  0  0  0  0  0  0
   -3.2058  -17.9303   27.0911 H   0  0  0  0  0  0  0  0  0  0  0  0
   -2.8045  -19.1802   28.9839 H   0  0  0  0  0  0  0  0  0  0  0  0
   -3.6852  -18.0426   30.0337 H   0  0  0  0  0  0  0  0  0  0  0  0
   -1.8233  -16.9161   30.5963 H   0  0  0  0  0  0  0  0  0  0  0  0
   -0.8648  -18.1943   29.8251 H   0  0  0  0  0  0  0  0  0  0  0  0
  1  2  1  0
  2  3  1  0
  3  4  1  0
  4  5  1  0
  5  6  1  0
  6  7  2  0
  6  8  1  0
  8  9  1  0
  9 10  2  0
 10 11  1  0
 11 12  2  0
 12 13  1  0
 13 14  1  0
 14 15  1  0
 15 16  1  0
 16 17  1  0
 17 18  1  0
  2 19  1  0
 19 20  1  0
 20 21  1  0
 21 22  1  0
 22 23  1  0
 13  9  1  0
 18 14  1  0
 23 19  1  0
  1 24  1  0
  1 25  1  0
  1 26  1  0
  2 27  1  0
  3 28  1  0
  3 29  1  0
  5 30  1  0
  5 31  1  0
  8 32  1  0
 10 33  1  0
 11 34  1  0
 14 35  1  0
 15 36  1  0
 15 37  1  0
 16 38  1  0
 16 39  1  0
 17 40  1  0
 17 41  1  0
 18 42  1  0
 18 43  1  0
 20 44  1  0
 20 45  1  0
 21 46  1  0
 21 47  1  0
 22 48  1  0
 22 49  1  0
 23 50  1  0
 23 51  1  0
M  END
>  <Energy>  (1058) 
398.39366673085453

>  <compound_id>  (1058) 
8744

>  <target_id>  (1058) 
1

>  <reference_id>  (1058) 
96

>  <inspiration_ids>  (1058) 
[96, 124]

>  <energy_score>  (1058) 
238.47671283271734

>  <distance_score>  (1058) 
14.116078111029385

>  <path>  (1058) 
/opt/xchem-fragalysis-2/maxwin/BulkDock/SCRATCH/511015/C8744-P96/C8744-P96.minimised.mol

>  <scratch_subdir>  (1058) 
/opt/xchem-fragalysis-2/maxwin/BulkDock/SCRATCH/511015/C8744-P96

>  <fragmenstein_runtime>  (1058) 
39.90182304382324

>  <fragmenstein_outcome>  (1058) 
too moved

>  <fragmenstein_mode>  (1058) 
expansion

>  <fragmenstein_error>  (1058) 


$$$$
C8744-P124
     RDKit          3D

 51 53  0  0  0  0  0  0  0  0999 V2000
   -2.2916   -8.9762   16.0161 C   0  0  0  0  0  0  0  0  0  0  0  0
   -1.5851   -9.1635   17.3793 C   0  0  0  0  0  0  0  0  0  0  0  0
   -0.5685   -7.8133   17.5128 C   0  0  0  0  0  0  0  0  0  0  0  0
    0.4644   -7.7227   16.4249 O   0  0  0  0  0  0  0  0  0  0  0  0
    1.1820   -6.4578   16.1181 C   0  0  0  0  0  0  0  0  0  0  0  0
    2.5463   -6.0009   16.8931 C   0  0  0  0  0  0  0  0  0  0  0  0
    2.4167   -6.1243   18.0904 O   0  0  0  0  0  0  0  0  0  0  0  0
    3.7698   -5.6061   16.0628 N   0  0  0  0  0  0  0  0  0  0  0  0
    5.1718   -5.3605   16.4731 C   0  0  0  0  0  0  0  0  0  0  0  0
    5.4936   -6.2065   17.5258 C   0  0  0  0  0  0  0  0  0  0  0  0
    5.5479   -7.1341   16.4826 C   0  0  0  0  0  0  0  0  0  0  0  0
    6.5217   -6.8223   15.5994 N   0  0  0  0  0  0  0  0  0  0  0  0
    6.8930   -5.5429   16.0412 N   0  0  0  0  0  0  0  0  0  0  0  0
    8.2448   -4.1838   15.5649 C   0  0  0  0  0  0  0  0  0  0  0  0
    7.6393   -2.7915   14.8437 C   0  0  0  0  0  0  0  0  0  0  0  0
    8.6412   -1.7131   15.1394 C   0  0  0  0  0  0  0  0  0  0  0  0
   10.0879   -2.2519   15.1374 C   0  0  0  0  0  0  0  0  0  0  0  0
   10.0681   -3.7480   15.3764 C   0  0  0  0  0  0  0  0  0  0  0  0
   -2.6691   -9.6154   18.3384 N   0  0  0  0  0  0  0  0  0  0  0  0
   -3.0154  -11.0598   18.2012 C   0  0  0  0  0  0  0  0  0  0  0  0
   -3.6522  -11.5036   19.5224 C   0  0  0  0  0  0  0  0  0  0  0  0
   -3.6678  -10.2403   20.3591 C   0  0  0  0  0  0  0  0  0  0  0  0
   -2.5237   -9.4013   19.7756 C   0  0  0  0  0  0  0  0  0  0  0  0
   -2.8248   -9.8793   15.7019 H   0  0  0  0  0  0  0  0  0  0  0  0
   -1.5698   -8.7515   15.2238 H   0  0  0  0  0  0  0  0  0  0  0  0
   -3.0113   -8.1512   16.0603 H   0  0  0  0  0  0  0  0  0  0  0  0
   -0.8964   -9.9905   17.2211 H   0  0  0  0  0  0  0  0  0  0  0  0
   -1.1842   -6.9092   17.4736 H   0  0  0  0  0  0  0  0  0  0  0  0
   -0.0327   -7.8650   18.4644 H   0  0  0  0  0  0  0  0  0  0  0  0
    1.4519   -6.5411   15.0601 H   0  0  0  0  0  0  0  0  0  0  0  0
    0.4653   -5.6348   16.2122 H   0  0  0  0  0  0  0  0  0  0  0  0
    3.5447   -5.6826   15.0769 H   0  0  0  0  0  0  0  0  0  0  0  0
    4.8714   -6.3274   18.3926 H   0  0  0  0  0  0  0  0  0  0  0  0
    4.9073   -8.0028   16.3375 H   0  0  0  0  0  0  0  0  0  0  0  0
    8.6561   -4.8510   14.7539 H   0  0  0  0  0  0  0  0  0  0  0  0
    6.6219   -2.5311   15.1049 H   0  0  0  0  0  0  0  0  0  0  0  0
    7.6038   -2.8332   13.7725 H   0  0  0  0  0  0  0  0  0  0  0  0
    8.3429   -1.4061   16.1240 H   0  0  0  0  0  0  0  0  0  0  0  0
    8.5157   -0.8261   14.5128 H   0  0  0  0  0  0  0  0  0  0  0  0
   10.6623   -2.0233   14.2396 H   0  0  0  0  0  0  0  0  0  0  0  0
   10.6962   -1.8168   15.9239 H   0  0  0  0  0  0  0  0  0  0  0  0
   10.6886   -3.9975   16.2485 H   0  0  0  0  0  0  0  0  0  0  0  0
   10.5525   -4.2428   14.5319 H   0  0  0  0  0  0  0  0  0  0  0  0
   -3.7178  -11.2034   17.3740 H   0  0  0  0  0  0  0  0  0  0  0  0
   -2.1292  -11.6752   18.0081 H   0  0  0  0  0  0  0  0  0  0  0  0
   -3.0278  -12.2687   19.9956 H   0  0  0  0  0  0  0  0  0  0  0  0
   -4.6584  -11.9109   19.3859 H   0  0  0  0  0  0  0  0  0  0  0  0
   -4.6215   -9.7150   20.2220 H   0  0  0  0  0  0  0  0  0  0  0  0
   -3.5476  -10.4371   21.4249 H   0  0  0  0  0  0  0  0  0  0  0  0
   -2.6392   -8.3448   20.0357 H   0  0  0  0  0  0  0  0  0  0  0  0
   -1.5768   -9.7546   20.1822 H   0  0  0  0  0  0  0  0  0  0  0  0
  1  2  1  0
  2  3  1  0
  3  4  1  0
  4  5  1  0
  5  6  1  0
  6  7  2  0
  6  8  1  0
  8  9  1  0
  9 10  2  0
 10 11  1  0
 11 12  2  0
 12 13  1  0
 13 14  1  0
 14 15  1  0
 15 16  1  0
 16 17  1  0
 17 18  1  0
  2 19  1  0
 19 20  1  0
 20 21  1  0
 21 22  1  0
 22 23  1  0
 13  9  1  0
 18 14  1  0
 23 19  1  0
  1 24  1  0
  1 25  1  0
  1 26  1  0
  2 27  1  0
  3 28  1  0
  3 29  1  0
  5 30  1  0
  5 31  1  0
  8 32  1  0
 10 33  1  0
 11 34  1  0
 14 35  1  0
 15 36  1  0
 15 37  1  0
 16 38  1  0
 16 39  1  0
 17 40  1  0
 17 41  1  0
 18 42  1  0
 18 43  1  0
 20 44  1  0
 20 45  1  0
 21 46  1  0
 21 47  1  0
 22 48  1  0
 22 49  1  0
 23 50  1  0
 23 51  1  0
M  END
>  <Energy>  (1059) 
497.53408510789853

>  <compound_id>  (1059) 
8744

>  <target_id>  (1059) 
1

>  <reference_id>  (1059) 
124

>  <inspiration_ids>  (1059) 
[96, 124]

>  <energy_score>  (1059) 
337.6171312097539

>  <distance_score>  (1059) 
14.399063110995074

>  <path>  (1059) 
/opt/xchem-fragalysis-2/maxwin/BulkDock/SCRATCH/511015/C8744-P124/C8744-P124.minimised.mol

>  <scratch_subdir>  (1059) 
/opt/xchem-fragalysis-2/maxwin/BulkDock/SCRATCH/511015/C8744-P124

>  <fragmenstein_runtime>  (1059) 
72.81594014167786

>  <fragmenstein_outcome>  (1059) 
too moved

>  <fragmenstein_mode>  (1059) 
expansion

>  <fragmenstein_error>  (1059) 


$$$$
C8745-P96
     RDKit          3D

 58 60  0  0  0  0  0  0  0  0999 V2000
   10.0376  -11.1586   21.8809 C   0  0  0  0  0  0  0  0  0  0  0  0
    8.2873  -11.4538   22.0296 C   0  0  0  0  0  0  0  0  0  0  0  0
    7.6726  -13.4721   21.8005 C   0  0  0  0  0  0  0  0  0  0  0  0
    6.0894  -14.7598   21.8909 N   0  0  0  0  0  0  0  0  0  0  0  0
    5.5619  -16.2696   20.7474 C   0  0  0  0  0  0  0  0  0  0  0  0
    6.0719  -16.6919   19.6546 O   0  0  0  0  0  0  0  0  0  0  0  0
    3.9013  -17.4851   21.3123 C   0  0  0  0  0  0  0  0  0  0  0  0
    3.6536  -18.7560   22.3718 N   0  0  0  0  0  0  0  0  0  0  0  0
    3.1218  -18.3776   23.7124 C   0  0  0  0  0  0  0  0  0  0  0  0
    1.8872  -19.2386   24.0145 C   0  0  0  0  0  0  0  0  0  0  0  0
    1.9623  -20.3530   22.9991 C   0  0  0  0  0  0  0  0  0  0  0  0
    2.6168  -19.6707   21.8058 C   0  0  0  0  0  0  0  0  0  0  0  0
    7.7890   -9.9637   22.2612 N   0  0  0  0  0  0  0  0  0  0  0  0
    8.7953   -8.9227   21.8461 C   0  0  0  0  0  0  0  0  0  0  0  0
    7.3389   -9.5449   23.6040 C   0  0  0  0  0  0  0  0  0  0  0  0
    7.2925   -7.9978   23.7556 C   0  0  0  0  0  0  0  0  0  0  0  0
    8.2475   -7.1734   24.4148 C   0  0  0  0  0  0  0  0  0  0  0  0
    7.9438   -5.8841   24.0417 C   0  0  0  0  0  0  0  0  0  0  0  0
    6.8214   -5.9608   23.2685 N   0  0  0  0  0  0  0  0  0  0  0  0
    6.0229   -4.8837   22.6947 C   0  0  0  0  0  0  0  0  0  0  0  0
    6.5008   -3.4578   22.9755 C   0  0  0  0  0  0  0  0  0  0  0  0
    5.9482   -3.1025   24.3537 C   0  0  0  0  0  0  0  0  0  0  0  0
    4.7548   -4.0280   24.5762 C   0  0  0  0  0  0  0  0  0  0  0  0
    4.6119   -4.8419   23.2933 C   0  0  0  0  0  0  0  0  0  0  0  0
    6.4312   -7.2384   23.0582 N   0  0  0  0  0  0  0  0  0  0  0  0
   10.2999  -10.6788   20.9412 H   0  0  0  0  0  0  0  0  0  0  0  0
   10.7181  -12.0046   21.9475 H   0  0  0  0  0  0  0  0  0  0  0  0
   10.3876  -10.4847   22.6685 H   0  0  0  0  0  0  0  0  0  0  0  0
    8.1576  -11.2538   21.0004 H   0  0  0  0  0  0  0  0  0  0  0  0
    7.6906  -13.1106   22.9377 H   0  0  0  0  0  0  0  0  0  0  0  0
    7.6016  -12.7887   21.0045 H   0  0  0  0  0  0  0  0  0  0  0  0
    5.4388  -14.6344   22.6378 H   0  0  0  0  0  0  0  0  0  0  0  0
    3.5788  -17.9765   20.3603 H   0  0  0  0  0  0  0  0  0  0  0  0
    3.1824  -16.8778   21.8302 H   0  0  0  0  0  0  0  0  0  0  0  0
    3.9042  -18.6091   24.4448 H   0  0  0  0  0  0  0  0  0  0  0  0
    2.8826  -17.3183   23.8438 H   0  0  0  0  0  0  0  0  0  0  0  0
    0.9734  -18.6535   23.8609 H   0  0  0  0  0  0  0  0  0  0  0  0
    1.8837  -19.6143   25.0419 H   0  0  0  0  0  0  0  0  0  0  0  0
    2.6026  -21.1615   23.3713 H   0  0  0  0  0  0  0  0  0  0  0  0
    0.9804  -20.7705   22.7594 H   0  0  0  0  0  0  0  0  0  0  0  0
    1.8539  -19.1389   21.2296 H   0  0  0  0  0  0  0  0  0  0  0  0
    3.0849  -20.4025   21.1397 H   0  0  0  0  0  0  0  0  0  0  0  0
    9.2686   -9.1008   20.8860 H   0  0  0  0  0  0  0  0  0  0  0  0
    8.3550   -7.9362   21.6850 H   0  0  0  0  0  0  0  0  0  0  0  0
    9.5851   -8.7595   22.5887 H   0  0  0  0  0  0  0  0  0  0  0  0
    8.0123   -9.9377   24.3684 H   0  0  0  0  0  0  0  0  0  0  0  0
    6.3382   -9.9455   23.7966 H   0  0  0  0  0  0  0  0  0  0  0  0
    9.0859   -7.4910   25.0189 H   0  0  0  0  0  0  0  0  0  0  0  0
    8.4191   -4.9461   24.2892 H   0  0  0  0  0  0  0  0  0  0  0  0
    5.9920   -5.0687   21.6182 H   0  0  0  0  0  0  0  0  0  0  0  0
    6.0359   -2.7871   22.2431 H   0  0  0  0  0  0  0  0  0  0  0  0
    7.5833   -3.3202   22.9072 H   0  0  0  0  0  0  0  0  0  0  0  0
    6.7010   -3.2654   25.1327 H   0  0  0  0  0  0  0  0  0  0  0  0
    5.6562   -2.0482   24.3996 H   0  0  0  0  0  0  0  0  0  0  0  0
    3.8401   -3.4703   24.8005 H   0  0  0  0  0  0  0  0  0  0  0  0
    4.9525   -4.6905   25.4270 H   0  0  0  0  0  0  0  0  0  0  0  0
    3.9362   -4.3189   22.6055 H   0  0  0  0  0  0  0  0  0  0  0  0
    4.1832   -5.8254   23.4960 H   0  0  0  0  0  0  0  0  0  0  0  0
  1  2  1  0
  2  3  1  0
  3  4  1  0
  4  5  1  0
  5  6  2  0
  5  7  1  0
  7  8  1  0
  8  9  1  0
  9 10  1  0
 10 11  1  0
 11 12  1  0
  2 13  1  0
 13 14  1  0
 13 15  1  0
 15 16  1  0
 16 17  1  0
 17 18  2  0
 18 19  1  0
 19 20  1  0
 20 21  1  0
 21 22  1  0
 22 23  1  0
 23 24  1  0
 19 25  1  0
 12  8  1  0
 25 16  2  0
 24 20  1  0
  1 26  1  0
  1 27  1  0
  1 28  1  0
  2 29  1  0
  3 30  1  0
  3 31  1  0
  4 32  1  0
  7 33  1  0
  7 34  1  0
  9 35  1  0
  9 36  1  0
 10 37  1  0
 10 38  1  0
 11 39  1  0
 11 40  1  0
 12 41  1  0
 12 42  1  0
 14 43  1  0
 14 44  1  0
 14 45  1  0
 15 46  1  0
 15 47  1  0
 17 48  1  0
 18 49  1  0
 20 50  1  0
 21 51  1  0
 21 52  1  0
 22 53  1  0
 22 54  1  0
 23 55  1  0
 23 56  1  0
 24 57  1  0
 24 58  1  0
M  END
>  <Energy>  (1060) 
693.73936048380074

>  <compound_id>  (1060) 
8745

>  <target_id>  (1060) 
1

>  <reference_id>  (1060) 
96

>  <inspiration_ids>  (1060) 
[96, 124]

>  <energy_score>  (1060) 
551.4692774330003

>  <distance_score>  (1060) 
13.541378919101222

>  <path>  (1060) 
/opt/xchem-fragalysis-2/maxwin/BulkDock/SCRATCH/511015/C8745-P96/C8745-P96.minimised.mol

>  <scratch_subdir>  (1060) 
/opt/xchem-fragalysis-2/maxwin/BulkDock/SCRATCH/511015/C8745-P96

>  <fragmenstein_runtime>  (1060) 
58.74599003791809

>  <fragmenstein_outcome>  (1060) 
too moved

>  <fragmenstein_mode>  (1060) 
expansion

>  <fragmenstein_error>  (1060) 


$$$$
C8745-P124
     RDKit          3D

 58 60  0  0  0  0  0  0  0  0999 V2000
    6.4583  -10.8995   18.5725 C   0  0  0  0  0  0  0  0  0  0  0  0
    7.4304  -10.7941   19.5466 C   0  0  0  0  0  0  0  0  0  0  0  0
    5.7479  -11.5994   20.3706 C   0  0  0  0  0  0  0  0  0  0  0  0
    4.6618  -12.8235   20.9931 N   0  0  0  0  0  0  0  0  0  0  0  0
    3.3944  -12.7261   22.2508 C   0  0  0  0  0  0  0  0  0  0  0  0
    3.0300  -11.7162   22.7958 O   0  0  0  0  0  0  0  0  0  0  0  0
    2.5251  -14.3069   23.1111 C   0  0  0  0  0  0  0  0  0  0  0  0
    0.6474  -14.5916   23.5216 N   0  0  0  0  0  0  0  0  0  0  0  0
   -0.2295  -14.7806   24.9277 C   0  0  0  0  0  0  0  0  0  0  0  0
   -1.7340  -14.4484   24.5944 C   0  0  0  0  0  0  0  0  0  0  0  0
   -1.7577  -14.4649   23.0706 C   0  0  0  0  0  0  0  0  0  0  0  0
   -0.4834  -15.2491   22.7905 C   0  0  0  0  0  0  0  0  0  0  0  0
    8.4449   -9.1637   19.0837 N   0  0  0  0  0  0  0  0  0  0  0  0
    7.1497   -7.6376   19.4473 C   0  0  0  0  0  0  0  0  0  0  0  0
    9.9617   -8.5159   19.9886 C   0  0  0  0  0  0  0  0  0  0  0  0
   11.0578   -7.8260   21.2843 C   0  0  0  0  0  0  0  0  0  0  0  0
   11.9436   -8.4805   22.2022 C   0  0  0  0  0  0  0  0  0  0  0  0
   12.7883   -7.5057   22.6903 C   0  0  0  0  0  0  0  0  0  0  0  0
   12.4448   -6.3512   22.0667 N   0  0  0  0  0  0  0  0  0  0  0  0
   13.0728   -5.0462   22.1064 C   0  0  0  0  0  0  0  0  0  0  0  0
   14.0894   -4.8147   23.2257 C   0  0  0  0  0  0  0  0  0  0  0  0
   14.8059   -3.5480   22.7823 C   0  0  0  0  0  0  0  0  0  0  0  0
   14.8771   -3.6430   21.2600 C   0  0  0  0  0  0  0  0  0  0  0  0
   13.8853   -4.7310   20.8476 C   0  0  0  0  0  0  0  0  0  0  0  0
   11.3884   -6.5099   21.2736 N   0  0  0  0  0  0  0  0  0  0  0  0
    5.9453  -11.8563   18.5350 H   0  0  0  0  0  0  0  0  0  0  0  0
    7.2158  -10.7279   17.7798 H   0  0  0  0  0  0  0  0  0  0  0  0
    5.6351  -10.2222   18.6233 H   0  0  0  0  0  0  0  0  0  0  0  0
    7.0891  -10.1203   20.1590 H   0  0  0  0  0  0  0  0  0  0  0  0
    5.8164  -11.1517   21.3550 H   0  0  0  0  0  0  0  0  0  0  0  0
    6.4381  -12.4576   20.4688 H   0  0  0  0  0  0  0  0  0  0  0  0
    4.7144  -13.7733   20.6420 H   0  0  0  0  0  0  0  0  0  0  0  0
    2.6919  -13.6090   23.9579 H   0  0  0  0  0  0  0  0  0  0  0  0
    3.2202  -15.1092   23.3418 H   0  0  0  0  0  0  0  0  0  0  0  0
   -0.3639  -15.8336   25.2324 H   0  0  0  0  0  0  0  0  0  0  0  0
    0.1615  -14.2943   25.8288 H   0  0  0  0  0  0  0  0  0  0  0  0
   -2.3895  -15.2286   25.0007 H   0  0  0  0  0  0  0  0  0  0  0  0
   -2.0835  -13.4931   24.9967 H   0  0  0  0  0  0  0  0  0  0  0  0
   -2.6520  -14.9708   22.6933 H   0  0  0  0  0  0  0  0  0  0  0  0
   -1.7209  -13.4596   22.6402 H   0  0  0  0  0  0  0  0  0  0  0  0
   -0.3601  -15.7231   21.8389 H   0  0  0  0  0  0  0  0  0  0  0  0
   -0.7999  -16.1630   23.3234 H   0  0  0  0  0  0  0  0  0  0  0  0
    7.1147   -6.7957   18.7400 H   0  0  0  0  0  0  0  0  0  0  0  0
    6.0586   -7.8294   19.2290 H   0  0  0  0  0  0  0  0  0  0  0  0
    6.9491   -7.4267   20.4782 H   0  0  0  0  0  0  0  0  0  0  0  0
   10.6516   -9.2561   19.6612 H   0  0  0  0  0  0  0  0  0  0  0  0
    9.5902   -8.7595   20.8913 H   0  0  0  0  0  0  0  0  0  0  0  0
   12.0439   -9.5282   22.4437 H   0  0  0  0  0  0  0  0  0  0  0  0
   13.6183   -7.5718   23.3788 H   0  0  0  0  0  0  0  0  0  0  0  0
   12.2587   -4.3182   22.2166 H   0  0  0  0  0  0  0  0  0  0  0  0
   13.6144   -4.7008   24.2050 H   0  0  0  0  0  0  0  0  0  0  0  0
   14.8147   -5.6341   23.2931 H   0  0  0  0  0  0  0  0  0  0  0  0
   14.2233   -2.6666   23.0737 H   0  0  0  0  0  0  0  0  0  0  0  0
   15.7969   -3.4536   23.2365 H   0  0  0  0  0  0  0  0  0  0  0  0
   14.6287   -2.6806   20.8003 H   0  0  0  0  0  0  0  0  0  0  0  0
   15.8877   -3.9094   20.9310 H   0  0  0  0  0  0  0  0  0  0  0  0
   13.2487   -4.4067   20.0180 H   0  0  0  0  0  0  0  0  0  0  0  0
   14.4372   -5.6150   20.5047 H   0  0  0  0  0  0  0  0  0  0  0  0
  1  2  1  0
  2  3  1  0
  3  4  1  0
  4  5  1  0
  5  6  2  0
  5  7  1  0
  7  8  1  0
  8  9  1  0
  9 10  1  0
 10 11  1  0
 11 12  1  0
  2 13  1  0
 13 14  1  0
 13 15  1  0
 15 16  1  0
 16 17  1  0
 17 18  2  0
 18 19  1  0
 19 20  1  0
 20 21  1  0
 21 22  1  0
 22 23  1  0
 23 24  1  0
 19 25  1  0
 12  8  1  0
 25 16  2  0
 24 20  1  0
  1 26  1  0
  1 27  1  0
  1 28  1  0
  2 29  1  0
  3 30  1  0
  3 31  1  0
  4 32  1  0
  7 33  1  0
  7 34  1  0
  9 35  1  0
  9 36  1  0
 10 37  1  0
 10 38  1  0
 11 39  1  0
 11 40  1  0
 12 41  1  0
 12 42  1  0
 14 43  1  0
 14 44  1  0
 14 45  1  0
 15 46  1  0
 15 47  1  0
 17 48  1  0
 18 49  1  0
 20 50  1  0
 21 51  1  0
 21 52  1  0
 22 53  1  0
 22 54  1  0
 23 55  1  0
 23 56  1  0
 24 57  1  0
 24 58  1  0
M  END
>  <Energy>  (1061) 
968.15584339200257

>  <compound_id>  (1061) 
8745

>  <target_id>  (1061) 
1

>  <reference_id>  (1061) 
124

>  <inspiration_ids>  (1061) 
[96, 124]

>  <energy_score>  (1061) 
825.885760341212

>  <distance_score>  (1061) 
12.176309555448805

>  <path>  (1061) 
/opt/xchem-fragalysis-2/maxwin/BulkDock/SCRATCH/511015/C8745-P124/C8745-P124.minimised.mol

>  <scratch_subdir>  (1061) 
/opt/xchem-fragalysis-2/maxwin/BulkDock/SCRATCH/511015/C8745-P124

>  <fragmenstein_runtime>  (1061) 
40.26049208641052

>  <fragmenstein_outcome>  (1061) 
too moved

>  <fragmenstein_mode>  (1061) 
expansion

>  <fragmenstein_error>  (1061) 


$$$$
C8746-P96
     RDKit          3D

 58 60  0  0  0  0  0  0  0  0999 V2000
    9.3378   -5.2798   24.8803 C   0  0  0  0  0  0  0  0  0  0  0  0
    8.4905   -6.0841   23.8683 C   0  0  0  0  0  0  0  0  0  0  0  0
    7.7596   -7.3621   24.7762 C   0  0  0  0  0  0  0  0  0  0  0  0
    6.3630   -8.1567   24.5328 N   0  0  0  0  0  0  0  0  0  0  0  0
    6.7871   -8.0230   23.1336 C   0  0  0  0  0  0  0  0  0  0  0  0
    5.2634   -7.5084   25.2699 C   0  0  0  0  0  0  0  0  0  0  0  0
    4.4948   -6.6371   24.9264 O   0  0  0  0  0  0  0  0  0  0  0  0
    4.9800   -8.1549   26.7347 C   0  0  0  0  0  0  0  0  0  0  0  0
    3.6145   -8.8625   26.8162 N   0  0  0  0  0  0  0  0  0  0  0  0
    3.5611  -10.1782   27.4941 C   0  0  0  0  0  0  0  0  0  0  0  0
    2.0902  -10.4615   27.8342 C   0  0  0  0  0  0  0  0  0  0  0  0
    1.3826   -9.1458   27.5716 C   0  0  0  0  0  0  0  0  0  0  0  0
    2.5196   -8.1194   27.4540 C   0  0  0  0  0  0  0  0  0  0  0  0
    9.4120   -6.3953   22.7123 N   0  0  0  0  0  0  0  0  0  0  0  0
   10.0122   -5.1811   22.0787 C   0  0  0  0  0  0  0  0  0  0  0  0
   10.8040   -5.4440   20.8160 C   0  0  0  0  0  0  0  0  0  0  0  0
   11.6158   -4.4970   20.1331 C   0  0  0  0  0  0  0  0  0  0  0  0
   12.2294   -5.1999   19.1243 C   0  0  0  0  0  0  0  0  0  0  0  0
   11.8337   -6.4950   19.2848 N   0  0  0  0  0  0  0  0  0  0  0  0
   12.3618   -7.6827   18.6464 C   0  0  0  0  0  0  0  0  0  0  0  0
   13.6594   -7.5151   17.8539 C   0  0  0  0  0  0  0  0  0  0  0  0
   14.1192   -8.9481   17.6209 C   0  0  0  0  0  0  0  0  0  0  0  0
   13.6394   -9.7371   18.8381 C   0  0  0  0  0  0  0  0  0  0  0  0
   12.7462   -8.7898   19.6358 C   0  0  0  0  0  0  0  0  0  0  0  0
   10.8280   -6.6262   20.1819 N   0  0  0  0  0  0  0  0  0  0  0  0
    9.6067   -4.2872   24.5067 H   0  0  0  0  0  0  0  0  0  0  0  0
   10.2496   -5.8195   25.1589 H   0  0  0  0  0  0  0  0  0  0  0  0
    8.7691   -5.0986   25.7992 H   0  0  0  0  0  0  0  0  0  0  0  0
    7.6728   -5.4377   23.5257 H   0  0  0  0  0  0  0  0  0  0  0  0
    8.5259   -8.1472   24.8858 H   0  0  0  0  0  0  0  0  0  0  0  0
    7.6262   -6.9561   25.7885 H   0  0  0  0  0  0  0  0  0  0  0  0
    6.0845   -8.6687   22.5896 H   0  0  0  0  0  0  0  0  0  0  0  0
    6.5749   -7.0393   22.7034 H   0  0  0  0  0  0  0  0  0  0  0  0
    7.7461   -8.4956   22.8824 H   0  0  0  0  0  0  0  0  0  0  0  0
    5.0286   -7.3452   27.4716 H   0  0  0  0  0  0  0  0  0  0  0  0
    5.7916   -8.8420   26.9636 H   0  0  0  0  0  0  0  0  0  0  0  0
    3.8974  -10.9568   26.8176 H   0  0  0  0  0  0  0  0  0  0  0  0
    4.1656  -10.1787   28.4078 H   0  0  0  0  0  0  0  0  0  0  0  0
    1.6730  -11.2597   27.2113 H   0  0  0  0  0  0  0  0  0  0  0  0
    1.9923  -10.7595   28.8835 H   0  0  0  0  0  0  0  0  0  0  0  0
    0.6810   -8.8869   28.3703 H   0  0  0  0  0  0  0  0  0  0  0  0
    0.8188   -9.1995   26.6332 H   0  0  0  0  0  0  0  0  0  0  0  0
    2.8142   -7.7736   28.4526 H   0  0  0  0  0  0  0  0  0  0  0  0
    2.2118   -7.2530   26.8621 H   0  0  0  0  0  0  0  0  0  0  0  0
    8.9503   -6.9290   21.9798 H   0  0  0  0  0  0  0  0  0  0  0  0
   10.7207   -4.7225   22.7770 H   0  0  0  0  0  0  0  0  0  0  0  0
    9.2241   -4.4551   21.8651 H   0  0  0  0  0  0  0  0  0  0  0  0
   11.7581   -3.4522   20.3759 H   0  0  0  0  0  0  0  0  0  0  0  0
   12.9561   -4.8972   18.3838 H   0  0  0  0  0  0  0  0  0  0  0  0
   11.5752   -8.0650   17.9883 H   0  0  0  0  0  0  0  0  0  0  0  0
   14.4140   -6.9756   18.4399 H   0  0  0  0  0  0  0  0  0  0  0  0
   13.5173   -6.9752   16.9134 H   0  0  0  0  0  0  0  0  0  0  0  0
   13.6506   -9.3488   16.7140 H   0  0  0  0  0  0  0  0  0  0  0  0
   15.2035   -9.0123   17.4890 H   0  0  0  0  0  0  0  0  0  0  0  0
   13.0794  -10.6222   18.5160 H   0  0  0  0  0  0  0  0  0  0  0  0
   14.4792  -10.0846   19.4488 H   0  0  0  0  0  0  0  0  0  0  0  0
   13.3074   -8.3765   20.4837 H   0  0  0  0  0  0  0  0  0  0  0  0
   11.8718   -9.3080   20.0438 H   0  0  0  0  0  0  0  0  0  0  0  0
  1  2  1  0
  2  3  1  0
  3  4  1  0
  4  5  1  0
  4  6  1  0
  6  7  2  0
  6  8  1  0
  8  9  1  0
  9 10  1  0
 10 11  1  0
 11 12  1  0
 12 13  1  0
  2 14  1  0
 14 15  1  0
 15 16  1  0
 16 17  1  0
 17 18  2  0
 18 19  1  0
 19 20  1  0
 20 21  1  0
 21 22  1  0
 22 23  1  0
 23 24  1  0
 19 25  1  0
 13  9  1  0
 25 16  2  0
 24 20  1  0
  1 26  1  0
  1 27  1  0
  1 28  1  0
  2 29  1  0
  3 30  1  0
  3 31  1  0
  5 32  1  0
  5 33  1  0
  5 34  1  0
  8 35  1  0
  8 36  1  0
 10 37  1  0
 10 38  1  0
 11 39  1  0
 11 40  1  0
 12 41  1  0
 12 42  1  0
 13 43  1  0
 13 44  1  0
 14 45  1  0
 15 46  1  0
 15 47  1  0
 17 48  1  0
 18 49  1  0
 20 50  1  0
 21 51  1  0
 21 52  1  0
 22 53  1  0
 22 54  1  0
 23 55  1  0
 23 56  1  0
 24 57  1  0
 24 58  1  0
M  END
>  <Energy>  (1062) 
200.52701914291023

>  <compound_id>  (1062) 
8746

>  <target_id>  (1062) 
1

>  <reference_id>  (1062) 
96

>  <inspiration_ids>  (1062) 
[96, 124]

>  <energy_score>  (1062) 
64.64529723150235

>  <distance_score>  (1062) 
14.215288125063354

>  <path>  (1062) 
/opt/xchem-fragalysis-2/maxwin/BulkDock/SCRATCH/511015/C8746-P96/C8746-P96.minimised.mol

>  <scratch_subdir>  (1062) 
/opt/xchem-fragalysis-2/maxwin/BulkDock/SCRATCH/511015/C8746-P96

>  <fragmenstein_runtime>  (1062) 
69.6304361820221

>  <fragmenstein_outcome>  (1062) 
too moved

>  <fragmenstein_mode>  (1062) 
expansion

>  <fragmenstein_error>  (1062) 


$$$$
C8746-P124
     RDKit          3D

 58 60  0  0  0  0  0  0  0  0999 V2000
    5.1679   -9.2954   11.9321 C   0  0  0  0  0  0  0  0  0  0  0  0
    4.8883   -9.7320   10.4616 C   0  0  0  0  0  0  0  0  0  0  0  0
    3.2569  -10.1431   10.3262 C   0  0  0  0  0  0  0  0  0  0  0  0
    2.4656  -11.0100    9.2505 N   0  0  0  0  0  0  0  0  0  0  0  0
    2.9069   -9.9214    8.3693 C   0  0  0  0  0  0  0  0  0  0  0  0
    1.0963  -11.3568    9.7622 C   0  0  0  0  0  0  0  0  0  0  0  0
    0.0441  -10.7694    9.6440 O   0  0  0  0  0  0  0  0  0  0  0  0
    1.0502  -12.7928   10.4755 C   0  0  0  0  0  0  0  0  0  0  0  0
    0.0733  -13.1269   11.6202 N   0  0  0  0  0  0  0  0  0  0  0  0
   -0.0138  -14.6028   11.8366 C   0  0  0  0  0  0  0  0  0  0  0  0
   -1.2119  -14.8182   12.7562 C   0  0  0  0  0  0  0  0  0  0  0  0
   -2.1506  -13.6894   12.3692 C   0  0  0  0  0  0  0  0  0  0  0  0
   -1.3398  -12.7755   11.4226 C   0  0  0  0  0  0  0  0  0  0  0  0
    5.3906   -8.5956    9.6556 N   0  0  0  0  0  0  0  0  0  0  0  0
    6.8695   -8.4582    9.6449 C   0  0  0  0  0  0  0  0  0  0  0  0
    7.2192   -7.5423    8.5180 C   0  0  0  0  0  0  0  0  0  0  0  0
    6.6085   -6.3128    8.1747 C   0  0  0  0  0  0  0  0  0  0  0  0
    7.1951   -5.9443    6.9932 C   0  0  0  0  0  0  0  0  0  0  0  0
    8.1562   -6.8856    6.7387 N   0  0  0  0  0  0  0  0  0  0  0  0
    8.9438   -6.9619    5.5280 C   0  0  0  0  0  0  0  0  0  0  0  0
    9.7847   -5.7132    5.2061 C   0  0  0  0  0  0  0  0  0  0  0  0
   11.1347   -6.2224    4.7029 C   0  0  0  0  0  0  0  0  0  0  0  0
   10.9027   -7.6816    4.3489 C   0  0  0  0  0  0  0  0  0  0  0  0
    9.9183   -8.1424    5.4111 C   0  0  0  0  0  0  0  0  0  0  0  0
    8.0946   -7.9321    7.5850 N   0  0  0  0  0  0  0  0  0  0  0  0
    4.9248  -10.1061   12.6251 H   0  0  0  0  0  0  0  0  0  0  0  0
    4.5695   -8.4156   12.1806 H   0  0  0  0  0  0  0  0  0  0  0  0
    6.1948   -8.9970   12.1404 H   0  0  0  0  0  0  0  0  0  0  0  0
    5.4333  -10.6469   10.2059 H   0  0  0  0  0  0  0  0  0  0  0  0
    3.1254  -10.7914   11.1772 H   0  0  0  0  0  0  0  0  0  0  0  0
    2.6615   -9.2445   10.5422 H   0  0  0  0  0  0  0  0  0  0  0  0
    2.6097   -8.8922    8.6160 H   0  0  0  0  0  0  0  0  0  0  0  0
    2.3269  -10.0999    7.4510 H   0  0  0  0  0  0  0  0  0  0  0  0
    3.9364  -10.0766    8.0372 H   0  0  0  0  0  0  0  0  0  0  0  0
    0.7916  -13.4630    9.6422 H   0  0  0  0  0  0  0  0  0  0  0  0
    2.0708  -13.0622   10.7476 H   0  0  0  0  0  0  0  0  0  0  0  0
   -0.2093  -15.1097   10.8813 H   0  0  0  0  0  0  0  0  0  0  0  0
    0.9053  -15.0289   12.2372 H   0  0  0  0  0  0  0  0  0  0  0  0
   -0.9279  -14.7403   13.8068 H   0  0  0  0  0  0  0  0  0  0  0  0
   -1.6688  -15.8009   12.6042 H   0  0  0  0  0  0  0  0  0  0  0  0
   -3.0389  -14.0727   11.8554 H   0  0  0  0  0  0  0  0  0  0  0  0
   -2.4895  -13.1462   13.2519 H   0  0  0  0  0  0  0  0  0  0  0  0
   -1.5246  -11.7207   11.6480 H   0  0  0  0  0  0  0  0  0  0  0  0
   -1.6495  -12.9675   10.3876 H   0  0  0  0  0  0  0  0  0  0  0  0
    5.1327   -8.7255    8.6801 H   0  0  0  0  0  0  0  0  0  0  0  0
    7.2639   -8.0701   10.5825 H   0  0  0  0  0  0  0  0  0  0  0  0
    7.3276   -9.4366    9.4584 H   0  0  0  0  0  0  0  0  0  0  0  0
    5.8090   -5.8026    8.6885 H   0  0  0  0  0  0  0  0  0  0  0  0
    7.0409   -5.0980    6.3413 H   0  0  0  0  0  0  0  0  0  0  0  0
    8.2019   -7.0759    4.7233 H   0  0  0  0  0  0  0  0  0  0  0  0
    9.2873   -5.1288    4.4224 H   0  0  0  0  0  0  0  0  0  0  0  0
    9.9229   -5.0429    6.0579 H   0  0  0  0  0  0  0  0  0  0  0  0
   11.5032   -5.6431    3.8510 H   0  0  0  0  0  0  0  0  0  0  0  0
   11.8804   -6.1470    5.5031 H   0  0  0  0  0  0  0  0  0  0  0  0
   11.8283   -8.2642    4.3572 H   0  0  0  0  0  0  0  0  0  0  0  0
   10.4533   -7.7638    3.3522 H   0  0  0  0  0  0  0  0  0  0  0  0
   10.4472   -8.3349    6.3502 H   0  0  0  0  0  0  0  0  0  0  0  0
    9.4094   -9.0676    5.1214 H   0  0  0  0  0  0  0  0  0  0  0  0
  1  2  1  0
  2  3  1  0
  3  4  1  0
  4  5  1  0
  4  6  1  0
  6  7  2  0
  6  8  1  0
  8  9  1  0
  9 10  1  0
 10 11  1  0
 11 12  1  0
 12 13  1  0
  2 14  1  0
 14 15  1  0
 15 16  1  0
 16 17  1  0
 17 18  2  0
 18 19  1  0
 19 20  1  0
 20 21  1  0
 21 22  1  0
 22 23  1  0
 23 24  1  0
 19 25  1  0
 13  9  1  0
 25 16  2  0
 24 20  1  0
  1 26  1  0
  1 27  1  0
  1 28  1  0
  2 29  1  0
  3 30  1  0
  3 31  1  0
  5 32  1  0
  5 33  1  0
  5 34  1  0
  8 35  1  0
  8 36  1  0
 10 37  1  0
 10 38  1  0
 11 39  1  0
 11 40  1  0
 12 41  1  0
 12 42  1  0
 13 43  1  0
 13 44  1  0
 14 45  1  0
 15 46  1  0
 15 47  1  0
 17 48  1  0
 18 49  1  0
 20 50  1  0
 21 51  1  0
 21 52  1  0
 22 53  1  0
 22 54  1  0
 23 55  1  0
 23 56  1  0
 24 57  1  0
 24 58  1  0
M  END
>  <Energy>  (1063) 
192.47290629660412

>  <compound_id>  (1063) 
8746

>  <target_id>  (1063) 
1

>  <reference_id>  (1063) 
124

>  <inspiration_ids>  (1063) 
[96, 124]

>  <energy_score>  (1063) 
56.591184385206134

>  <distance_score>  (1063) 
16.729217449459423

>  <path>  (1063) 
/opt/xchem-fragalysis-2/maxwin/BulkDock/SCRATCH/511015/C8746-P124/C8746-P124.minimised.mol

>  <scratch_subdir>  (1063) 
/opt/xchem-fragalysis-2/maxwin/BulkDock/SCRATCH/511015/C8746-P124

>  <fragmenstein_runtime>  (1063) 
67.47962212562561

>  <fragmenstein_outcome>  (1063) 
too moved

>  <fragmenstein_mode>  (1063) 
expansion

>  <fragmenstein_error>  (1063) 


$$$$
C8747-P96
     RDKit          3D

 58 60  0  0  0  0  0  0  0  0999 V2000
    5.8991   -5.1422   25.3619 C   0  0  0  0  0  0  0  0  0  0  0  0
    5.7006   -6.8749   25.3121 C   0  0  0  0  0  0  0  0  0  0  0  0
    7.1999   -7.6503   24.6154 C   0  0  0  0  0  0  0  0  0  0  0  0
    8.2877   -6.8549   23.9790 N   0  0  0  0  0  0  0  0  0  0  0  0
    8.1380   -6.5227   22.5596 C   0  0  0  0  0  0  0  0  0  0  0  0
    9.4684   -6.2761   21.8683 C   0  0  0  0  0  0  0  0  0  0  0  0
   10.4569   -7.2255   21.5084 C   0  0  0  0  0  0  0  0  0  0  0  0
   11.4106   -6.5226   20.8091 C   0  0  0  0  0  0  0  0  0  0  0  0
   10.9874   -5.2249   20.7882 N   0  0  0  0  0  0  0  0  0  0  0  0
   11.6859   -4.0652   20.2455 C   0  0  0  0  0  0  0  0  0  0  0  0
   12.1199   -4.2343   18.7781 C   0  0  0  0  0  0  0  0  0  0  0  0
   13.5780   -3.7952   18.7289 C   0  0  0  0  0  0  0  0  0  0  0  0
   14.1095   -4.1360   20.1094 C   0  0  0  0  0  0  0  0  0  0  0  0
   12.9658   -3.7356   21.0307 C   0  0  0  0  0  0  0  0  0  0  0  0
    9.7890   -5.0642   21.3905 N   0  0  0  0  0  0  0  0  0  0  0  0
    4.1002   -7.5993   26.2224 N   0  0  0  0  0  0  0  0  0  0  0  0
    5.3563   -7.2140   25.9852 C   0  0  0  0  0  0  0  0  0  0  0  0
    3.7549   -8.8917   27.2802 C   0  0  0  0  0  0  0  0  0  0  0  0
    4.4261   -9.6481   27.8277 O   0  0  0  0  0  0  0  0  0  0  0  0
    2.1399   -8.8203   27.5036 C   0  0  0  0  0  0  0  0  0  0  0  0
    1.4792  -10.1293   27.8987 N   0  0  0  0  0  0  0  0  0  0  0  0
    0.8679  -10.9228   26.8148 C   0  0  0  0  0  0  0  0  0  0  0  0
   -0.0830  -11.9154   27.5007 C   0  0  0  0  0  0  0  0  0  0  0  0
   -0.3317  -11.3334   28.8772 C   0  0  0  0  0  0  0  0  0  0  0  0
    0.3533   -9.9679   28.8374 C   0  0  0  0  0  0  0  0  0  0  0  0
    4.9142   -4.6721   25.4551 H   0  0  0  0  0  0  0  0  0  0  0  0
    6.5335   -4.8779   26.2146 H   0  0  0  0  0  0  0  0  0  0  0  0
    6.3755   -4.8143   24.4350 H   0  0  0  0  0  0  0  0  0  0  0  0
    5.1862   -6.8170   24.2170 H   0  0  0  0  0  0  0  0  0  0  0  0
    7.6764   -8.1629   25.4625 H   0  0  0  0  0  0  0  0  0  0  0  0
    6.8475   -8.4418   23.9400 H   0  0  0  0  0  0  0  0  0  0  0  0
    8.5199   -6.0157   24.5098 H   0  0  0  0  0  0  0  0  0  0  0  0
    7.6507   -7.3561   22.0429 H   0  0  0  0  0  0  0  0  0  0  0  0
    7.4849   -5.6495   22.4528 H   0  0  0  0  0  0  0  0  0  0  0  0
   10.4647   -8.2821   21.7373 H   0  0  0  0  0  0  0  0  0  0  0  0
   12.3468   -6.8305   20.3654 H   0  0  0  0  0  0  0  0  0  0  0  0
   10.9914   -3.2193   20.3279 H   0  0  0  0  0  0  0  0  0  0  0  0
   12.0315   -5.2714   18.4369 H   0  0  0  0  0  0  0  0  0  0  0  0
   11.5108   -3.6224   18.1045 H   0  0  0  0  0  0  0  0  0  0  0  0
   13.6379   -2.7137   18.5579 H   0  0  0  0  0  0  0  0  0  0  0  0
   14.1344   -4.2959   17.9314 H   0  0  0  0  0  0  0  0  0  0  0  0
   15.0348   -3.6012   20.3420 H   0  0  0  0  0  0  0  0  0  0  0  0
   14.3065   -5.2111   20.1880 H   0  0  0  0  0  0  0  0  0  0  0  0
   13.0110   -2.6536   21.2080 H   0  0  0  0  0  0  0  0  0  0  0  0
   13.0324   -4.2316   22.0044 H   0  0  0  0  0  0  0  0  0  0  0  0
    5.1014   -6.4917   26.9615 H   0  0  0  0  0  0  0  0  0  0  0  0
    5.5707   -8.4644   26.0051 H   0  0  0  0  0  0  0  0  0  0  0  0
    6.1496   -7.4735   26.9520 H   0  0  0  0  0  0  0  0  0  0  0  0
    2.0352   -8.1185   28.3419 H   0  0  0  0  0  0  0  0  0  0  0  0
    1.6375   -8.3644   26.6457 H   0  0  0  0  0  0  0  0  0  0  0  0
    0.2830  -10.2780   26.1469 H   0  0  0  0  0  0  0  0  0  0  0  0
    1.6121  -11.4545   26.2201 H   0  0  0  0  0  0  0  0  0  0  0  0
    0.3747  -12.9048   27.5952 H   0  0  0  0  0  0  0  0  0  0  0  0
   -1.0161  -12.0156   26.9379 H   0  0  0  0  0  0  0  0  0  0  0  0
   -1.3983  -11.2485   29.1061 H   0  0  0  0  0  0  0  0  0  0  0  0
    0.1308  -11.9696   29.6409 H   0  0  0  0  0  0  0  0  0  0  0  0
   -0.3504   -9.2083   28.4731 H   0  0  0  0  0  0  0  0  0  0  0  0
    0.6990   -9.6711   29.8327 H   0  0  0  0  0  0  0  0  0  0  0  0
  1  2  1  0
  2  3  1  0
  3  4  1  0
  4  5  1  0
  5  6  1  0
  6  7  1  0
  7  8  2  0
  8  9  1  0
  9 10  1  0
 10 11  1  0
 11 12  1  0
 12 13  1  0
 13 14  1  0
  9 15  1  0
  2 16  1  0
 16 17  1  0
 16 18  1  0
 18 19  2  0
 18 20  1  0
 20 21  1  0
 21 22  1  0
 22 23  1  0
 23 24  1  0
 24 25  1  0
 15  6  2  0
 25 21  1  0
 14 10  1  0
  1 26  1  0
  1 27  1  0
  1 28  1  0
  2 29  1  0
  3 30  1  0
  3 31  1  0
  4 32  1  0
  5 33  1  0
  5 34  1  0
  7 35  1  0
  8 36  1  0
 10 37  1  0
 11 38  1  0
 11 39  1  0
 12 40  1  0
 12 41  1  0
 13 42  1  0
 13 43  1  0
 14 44  1  0
 14 45  1  0
 17 46  1  0
 17 47  1  0
 17 48  1  0
 20 49  1  0
 20 50  1  0
 22 51  1  0
 22 52  1  0
 23 53  1  0
 23 54  1  0
 24 55  1  0
 24 56  1  0
 25 57  1  0
 25 58  1  0
M  END
>  <Energy>  (1064) 
856.40217743054643

>  <compound_id>  (1064) 
8747

>  <target_id>  (1064) 
1

>  <reference_id>  (1064) 
96

>  <inspiration_ids>  (1064) 
[96, 124]

>  <energy_score>  (1064) 
710.9840860521441

>  <distance_score>  (1064) 
13.654438934599387

>  <path>  (1064) 
/opt/xchem-fragalysis-2/maxwin/BulkDock/SCRATCH/511015/C8747-P96/C8747-P96.minimised.mol

>  <scratch_subdir>  (1064) 
/opt/xchem-fragalysis-2/maxwin/BulkDock/SCRATCH/511015/C8747-P96

>  <fragmenstein_runtime>  (1064) 
30.379342794418335

>  <fragmenstein_outcome>  (1064) 
too moved

>  <fragmenstein_mode>  (1064) 
expansion

>  <fragmenstein_error>  (1064) 


$$$$
C8747-P124
     RDKit          3D

 58 60  0  0  0  0  0  0  0  0999 V2000
   10.1961  -19.3721   19.6344 C   0  0  0  0  0  0  0  0  0  0  0  0
   10.0798  -19.7973   17.9950 C   0  0  0  0  0  0  0  0  0  0  0  0
   10.6505  -18.2070   17.1308 C   0  0  0  0  0  0  0  0  0  0  0  0
   11.4431  -17.0773   17.7607 N   0  0  0  0  0  0  0  0  0  0  0  0
   11.9172  -16.1198   16.7063 C   0  0  0  0  0  0  0  0  0  0  0  0
   12.1465  -14.6733   17.1013 C   0  0  0  0  0  0  0  0  0  0  0  0
   13.2401  -14.0496   17.7599 C   0  0  0  0  0  0  0  0  0  0  0  0
   13.1248  -12.7010   17.4760 C   0  0  0  0  0  0  0  0  0  0  0  0
   12.0544  -12.6075   16.6305 N   0  0  0  0  0  0  0  0  0  0  0  0
   11.8515  -11.6148   15.5806 C   0  0  0  0  0  0  0  0  0  0  0  0
   12.9540  -11.7511   14.5058 C   0  0  0  0  0  0  0  0  0  0  0  0
   12.2593  -12.1545   13.2061 C   0  0  0  0  0  0  0  0  0  0  0  0
   10.9095  -12.6985   13.6339 C   0  0  0  0  0  0  0  0  0  0  0  0
   10.5337  -11.8168   14.8170 C   0  0  0  0  0  0  0  0  0  0  0  0
   11.3300  -13.7369   16.6020 N   0  0  0  0  0  0  0  0  0  0  0  0
    8.3016  -20.7153   17.9559 N   0  0  0  0  0  0  0  0  0  0  0  0
    9.3745  -20.0625   17.6318 C   0  0  0  0  0  0  0  0  0  0  0  0
    7.9954  -22.1655   18.7436 C   0  0  0  0  0  0  0  0  0  0  0  0
    8.6925  -22.9100   19.3011 O   0  0  0  0  0  0  0  0  0  0  0  0
    6.3886  -22.3029   18.6730 C   0  0  0  0  0  0  0  0  0  0  0  0
    5.5572  -23.5557   18.8963 N   0  0  0  0  0  0  0  0  0  0  0  0
    4.1024  -23.1936   18.7672 C   0  0  0  0  0  0  0  0  0  0  0  0
    3.2888  -24.1365   19.6590 C   0  0  0  0  0  0  0  0  0  0  0  0
    4.3343  -24.9983   20.3326 C   0  0  0  0  0  0  0  0  0  0  0  0
    5.6134  -24.1667   20.2273 C   0  0  0  0  0  0  0  0  0  0  0  0
   10.1077  -20.2780   20.2424 H   0  0  0  0  0  0  0  0  0  0  0  0
    9.3741  -18.6935   19.8775 H   0  0  0  0  0  0  0  0  0  0  0  0
   11.1671  -18.9071   19.8199 H   0  0  0  0  0  0  0  0  0  0  0  0
   11.0578  -20.5401   17.9998 H   0  0  0  0  0  0  0  0  0  0  0  0
    9.7834  -17.7801   16.6143 H   0  0  0  0  0  0  0  0  0  0  0  0
   11.2878  -18.6297   16.3388 H   0  0  0  0  0  0  0  0  0  0  0  0
   10.8542  -16.5594   18.4157 H   0  0  0  0  0  0  0  0  0  0  0  0
   12.8562  -16.5160   16.3009 H   0  0  0  0  0  0  0  0  0  0  0  0
   11.1971  -16.1176   15.8763 H   0  0  0  0  0  0  0  0  0  0  0  0
   14.0650  -14.5378   18.2605 H   0  0  0  0  0  0  0  0  0  0  0  0
   13.7918  -11.8703   17.6615 H   0  0  0  0  0  0  0  0  0  0  0  0
   11.8634  -10.6395   16.0708 H   0  0  0  0  0  0  0  0  0  0  0  0
   13.7054  -12.5062   14.7654 H   0  0  0  0  0  0  0  0  0  0  0  0
   13.4965  -10.8106   14.3760 H   0  0  0  0  0  0  0  0  0  0  0  0
   12.1245  -11.2793   12.5611 H   0  0  0  0  0  0  0  0  0  0  0  0
   12.8396  -12.8908   12.6417 H   0  0  0  0  0  0  0  0  0  0  0  0
   10.1760  -12.6570   12.8275 H   0  0  0  0  0  0  0  0  0  0  0  0
   11.0036  -13.7465   13.9386 H   0  0  0  0  0  0  0  0  0  0  0  0
    9.7203  -12.2419   15.4121 H   0  0  0  0  0  0  0  0  0  0  0  0
   10.1826  -10.8515   14.4611 H   0  0  0  0  0  0  0  0  0  0  0  0
    9.5994  -21.1350   16.9813 H   0  0  0  0  0  0  0  0  0  0  0  0
    9.2414  -19.8432   16.3879 H   0  0  0  0  0  0  0  0  0  0  0  0
    8.5102  -19.1772   17.5085 H   0  0  0  0  0  0  0  0  0  0  0  0
    6.1254  -21.9754   17.6606 H   0  0  0  0  0  0  0  0  0  0  0  0
    6.0457  -21.6022   19.4368 H   0  0  0  0  0  0  0  0  0  0  0  0
    3.9057  -22.1601   19.0747 H   0  0  0  0  0  0  0  0  0  0  0  0
    3.7999  -23.2892   17.7189 H   0  0  0  0  0  0  0  0  0  0  0  0
    2.7210  -23.5656   20.4013 H   0  0  0  0  0  0  0  0  0  0  0  0
    2.5844  -24.7436   19.0819 H   0  0  0  0  0  0  0  0  0  0  0  0
    4.4535  -25.9410   19.7849 H   0  0  0  0  0  0  0  0  0  0  0  0
    4.0749  -25.2355   21.3686 H   0  0  0  0  0  0  0  0  0  0  0  0
    5.5803  -23.4246   21.0141 H   0  0  0  0  0  0  0  0  0  0  0  0
    6.5089  -24.7816   20.3543 H   0  0  0  0  0  0  0  0  0  0  0  0
  1  2  1  0
  2  3  1  0
  3  4  1  0
  4  5  1  0
  5  6  1  0
  6  7  1  0
  7  8  2  0
  8  9  1  0
  9 10  1  0
 10 11  1  0
 11 12  1  0
 12 13  1  0
 13 14  1  0
  9 15  1  0
  2 16  1  0
 16 17  1  0
 16 18  1  0
 18 19  2  0
 18 20  1  0
 20 21  1  0
 21 22  1  0
 22 23  1  0
 23 24  1  0
 24 25  1  0
 15  6  2  0
 25 21  1  0
 14 10  1  0
  1 26  1  0
  1 27  1  0
  1 28  1  0
  2 29  1  0
  3 30  1  0
  3 31  1  0
  4 32  1  0
  5 33  1  0
  5 34  1  0
  7 35  1  0
  8 36  1  0
 10 37  1  0
 11 38  1  0
 11 39  1  0
 12 40  1  0
 12 41  1  0
 13 42  1  0
 13 43  1  0
 14 44  1  0
 14 45  1  0
 17 46  1  0
 17 47  1  0
 17 48  1  0
 20 49  1  0
 20 50  1  0
 22 51  1  0
 22 52  1  0
 23 53  1  0
 23 54  1  0
 24 55  1  0
 24 56  1  0
 25 57  1  0
 25 58  1  0
M  END
>  <Energy>  (1065) 
903.87139439657938

>  <compound_id>  (1065) 
8747

>  <target_id>  (1065) 
1

>  <reference_id>  (1065) 
124

>  <inspiration_ids>  (1065) 
[96, 124]

>  <energy_score>  (1065) 
758.4533030181767

>  <distance_score>  (1065) 
15.6230800746622

>  <path>  (1065) 
/opt/xchem-fragalysis-2/maxwin/BulkDock/SCRATCH/511015/C8747-P124/C8747-P124.minimised.mol

>  <scratch_subdir>  (1065) 
/opt/xchem-fragalysis-2/maxwin/BulkDock/SCRATCH/511015/C8747-P124

>  <fragmenstein_runtime>  (1065) 
48.06372928619385

>  <fragmenstein_outcome>  (1065) 
too moved

>  <fragmenstein_mode>  (1065) 
expansion

>  <fragmenstein_error>  (1065) 


$$$$
C8748-P96
     RDKit          3D

 54 56  0  0  0  0  0  0  0  0999 V2000
   -3.6943  -20.2229   25.2866 C   0  0  0  0  0  0  0  0  0  0  0  0
   -3.8310  -19.9596   26.7863 C   0  0  0  0  0  0  0  0  0  0  0  0
   -3.1824  -18.1899   27.0909 C   0  0  0  0  0  0  0  0  0  0  0  0
   -1.6540  -17.3240   26.5863 N   0  0  0  0  0  0  0  0  0  0  0  0
   -0.7853  -16.0084   27.3217 C   0  0  0  0  0  0  0  0  0  0  0  0
   -1.0845  -15.5377   28.3817 O   0  0  0  0  0  0  0  0  0  0  0  0
    0.8157  -15.2094   26.7057 C   0  0  0  0  0  0  0  0  0  0  0  0
    1.0252  -14.1377   27.5260 C   0  0  0  0  0  0  0  0  0  0  0  0
    1.4904  -13.5395   26.3979 C   0  0  0  0  0  0  0  0  0  0  0  0
    3.1217  -13.5000   26.0206 N   0  0  0  0  0  0  0  0  0  0  0  0
    3.5945  -11.8875   25.0893 C   0  0  0  0  0  0  0  0  0  0  0  0
    4.2245  -10.3580   26.0327 C   0  0  0  0  0  0  0  0  0  0  0  0
    4.8723   -8.9694   25.6028 C   0  0  0  0  0  0  0  0  0  0  0  0
    5.6501   -9.4240   24.4215 C   0  0  0  0  0  0  0  0  0  0  0  0
    4.9202  -10.8824   23.9350 C   0  0  0  0  0  0  0  0  0  0  0  0
    2.2202  -15.0504   25.7525 N   0  0  0  0  0  0  0  0  0  0  0  0
   -5.1915  -21.0624   27.3720 N   0  0  0  0  0  0  0  0  0  0  0  0
   -6.8406  -20.8057   27.5530 C   0  0  0  0  0  0  0  0  0  0  0  0
   -7.3409  -19.7625   27.3347 O   0  0  0  0  0  0  0  0  0  0  0  0
   -8.1441  -21.9967   28.2564 C   0  0  0  0  0  0  0  0  0  0  0  0
   -9.2172  -22.9441   27.6147 N   0  0  0  0  0  0  0  0  0  0  0  0
   -9.3829  -24.1897   28.4425 C   0  0  0  0  0  0  0  0  0  0  0  0
  -10.6398  -24.8232   27.8745 C   0  0  0  0  0  0  0  0  0  0  0  0
  -11.4788  -23.6347   27.4452 C   0  0  0  0  0  0  0  0  0  0  0  0
  -10.6124  -22.4253   27.7682 C   0  0  0  0  0  0  0  0  0  0  0  0
   -4.1371  -21.1812   25.0017 H   0  0  0  0  0  0  0  0  0  0  0  0
   -4.1489  -19.4195   24.7057 H   0  0  0  0  0  0  0  0  0  0  0  0
   -2.6502  -20.2630   24.9867 H   0  0  0  0  0  0  0  0  0  0  0  0
   -3.0183  -20.5186   27.2734 H   0  0  0  0  0  0  0  0  0  0  0  0
   -3.9547  -17.5371   26.6692 H   0  0  0  0  0  0  0  0  0  0  0  0
   -3.1694  -18.0682   28.1792 H   0  0  0  0  0  0  0  0  0  0  0  0
   -1.2704  -17.4913   25.6586 H   0  0  0  0  0  0  0  0  0  0  0  0
    0.2917  -13.8103   28.2491 H   0  0  0  0  0  0  0  0  0  0  0  0
    0.9992  -12.8600   25.6830 H   0  0  0  0  0  0  0  0  0  0  0  0
    2.5545  -11.7617   24.8446 H   0  0  0  0  0  0  0  0  0  0  0  0
    5.0870  -10.7272   25.7098 H   0  0  0  0  0  0  0  0  0  0  0  0
    4.5197  -10.5606   27.0247 H   0  0  0  0  0  0  0  0  0  0  0  0
    5.5599   -8.6180   26.3847 H   0  0  0  0  0  0  0  0  0  0  0  0
    4.2206   -8.1101   25.4267 H   0  0  0  0  0  0  0  0  0  0  0  0
    6.6916   -9.6270   24.7226 H   0  0  0  0  0  0  0  0  0  0  0  0
    5.7670   -8.7070   23.6068 H   0  0  0  0  0  0  0  0  0  0  0  0
    5.9675  -11.2125   23.8883 H   0  0  0  0  0  0  0  0  0  0  0  0
    4.5690  -10.4249   23.0564 H   0  0  0  0  0  0  0  0  0  0  0  0
   -4.9828  -21.9663   27.6822 H   0  0  0  0  0  0  0  0  0  0  0  0
   -7.9719  -22.5626   29.1574 H   0  0  0  0  0  0  0  0  0  0  0  0
   -8.8547  -21.2178   28.5362 H   0  0  0  0  0  0  0  0  0  0  0  0
   -9.5487  -23.9471   29.5026 H   0  0  0  0  0  0  0  0  0  0  0  0
   -8.5467  -24.8883   28.4052 H   0  0  0  0  0  0  0  0  0  0  0  0
  -10.4079  -25.4509   27.0074 H   0  0  0  0  0  0  0  0  0  0  0  0
  -11.1527  -25.4434   28.6161 H   0  0  0  0  0  0  0  0  0  0  0  0
  -11.6955  -23.6906   26.3725 H   0  0  0  0  0  0  0  0  0  0  0  0
  -12.4277  -23.6031   27.9870 H   0  0  0  0  0  0  0  0  0  0  0  0
  -10.8081  -22.1099   28.8036 H   0  0  0  0  0  0  0  0  0  0  0  0
  -10.8674  -21.5834   27.1328 H   0  0  0  0  0  0  0  0  0  0  0  0
  1  2  1  0
  2  3  1  0
  3  4  1  0
  4  5  1  0
  5  6  2  0
  5  7  1  0
  7  8  1  0
  8  9  2  0
  9 10  1  0
 10 11  1  0
 11 12  1  0
 12 13  1  0
 13 14  1  0
 14 15  1  0
 10 16  1  0
  2 17  1  0
 17 18  1  0
 18 19  2  0
 18 20  1  0
 20 21  1  0
 21 22  1  0
 22 23  1  0
 23 24  1  0
 24 25  1  0
 16  7  2  0
 25 21  1  0
 15 11  1  0
  1 26  1  0
  1 27  1  0
  1 28  1  0
  2 29  1  0
  3 30  1  0
  3 31  1  0
  4 32  1  0
  8 33  1  0
  9 34  1  0
 11 35  1  0
 12 36  1  0
 12 37  1  0
 13 38  1  0
 13 39  1  0
 14 40  1  0
 14 41  1  0
 15 42  1  0
 15 43  1  0
 17 44  1  0
 20 45  1  0
 20 46  1  0
 22 47  1  0
 22 48  1  0
 23 49  1  0
 23 50  1  0
 24 51  1  0
 24 52  1  0
 25 53  1  0
 25 54  1  0
M  END
>  <Energy>  (1066) 
1058.3937512605762

>  <compound_id>  (1066) 
8748

>  <target_id>  (1066) 
1

>  <reference_id>  (1066) 
96

>  <inspiration_ids>  (1066) 
[96, 124]

>  <energy_score>  (1066) 
925.0948008658007

>  <distance_score>  (1066) 
16.249580344948885

>  <path>  (1066) 
/opt/xchem-fragalysis-2/maxwin/BulkDock/SCRATCH/511015/C8748-P96/C8748-P96.minimised.mol

>  <scratch_subdir>  (1066) 
/opt/xchem-fragalysis-2/maxwin/BulkDock/SCRATCH/511015/C8748-P96

>  <fragmenstein_runtime>  (1066) 
28.31420660018921

>  <fragmenstein_outcome>  (1066) 
too moved

>  <fragmenstein_mode>  (1066) 
expansion

>  <fragmenstein_error>  (1066) 


$$$$
C8748-P124
     RDKit          3D

 54 56  0  0  0  0  0  0  0  0999 V2000
    4.1328  -11.9760   17.7010 C   0  0  0  0  0  0  0  0  0  0  0  0
    5.9947  -11.6303   18.6708 C   0  0  0  0  0  0  0  0  0  0  0  0
    7.9012  -10.9468   17.6861 C   0  0  0  0  0  0  0  0  0  0  0  0
    8.6097   -9.7644   17.3211 N   0  0  0  0  0  0  0  0  0  0  0  0
    9.6204   -9.3424   15.8492 C   0  0  0  0  0  0  0  0  0  0  0  0
    9.9257  -10.1269   14.9733 O   0  0  0  0  0  0  0  0  0  0  0  0
   10.0847   -7.3733   15.6121 C   0  0  0  0  0  0  0  0  0  0  0  0
   11.7110   -6.6806   16.2031 C   0  0  0  0  0  0  0  0  0  0  0  0
   12.0142   -5.3144   16.4508 C   0  0  0  0  0  0  0  0  0  0  0  0
   11.1145   -4.8091   15.5876 N   0  0  0  0  0  0  0  0  0  0  0  0
   11.3258   -3.5969   14.7647 C   0  0  0  0  0  0  0  0  0  0  0  0
   12.7359   -2.9297   14.6669 C   0  0  0  0  0  0  0  0  0  0  0  0
   12.6300   -1.4251   14.6397 C   0  0  0  0  0  0  0  0  0  0  0  0
   11.2059   -1.3092   14.2199 C   0  0  0  0  0  0  0  0  0  0  0  0
   10.4925   -2.3753   15.0563 C   0  0  0  0  0  0  0  0  0  0  0  0
   10.6836   -6.2512   14.8469 N   0  0  0  0  0  0  0  0  0  0  0  0
    4.7400  -13.0284   19.3048 N   0  0  0  0  0  0  0  0  0  0  0  0
    3.7615  -13.1265   20.7387 C   0  0  0  0  0  0  0  0  0  0  0  0
    3.7390  -12.3795   21.7146 O   0  0  0  0  0  0  0  0  0  0  0  0
    2.3854  -14.6459   20.5561 C   0  0  0  0  0  0  0  0  0  0  0  0
    0.7988  -15.5042   21.3307 N   0  0  0  0  0  0  0  0  0  0  0  0
   -0.0856  -16.6154   20.5748 C   0  0  0  0  0  0  0  0  0  0  0  0
   -1.5714  -16.2495   20.0094 C   0  0  0  0  0  0  0  0  0  0  0  0
   -2.0499  -14.9784   20.7689 C   0  0  0  0  0  0  0  0  0  0  0  0
   -0.6534  -14.8736   22.1453 C   0  0  0  0  0  0  0  0  0  0  0  0
    3.4223  -12.6960   18.0588 H   0  0  0  0  0  0  0  0  0  0  0  0
    4.2246  -12.0805   16.6075 H   0  0  0  0  0  0  0  0  0  0  0  0
    3.4715  -11.0954   17.3879 H   0  0  0  0  0  0  0  0  0  0  0  0
    5.9846  -11.1174   19.6155 H   0  0  0  0  0  0  0  0  0  0  0  0
    8.3772  -11.6254   16.9394 H   0  0  0  0  0  0  0  0  0  0  0  0
    8.4955  -10.9767   18.6232 H   0  0  0  0  0  0  0  0  0  0  0  0
    8.5690   -9.0013   17.9165 H   0  0  0  0  0  0  0  0  0  0  0  0
   12.4342   -7.4503   16.2671 H   0  0  0  0  0  0  0  0  0  0  0  0
   12.8689   -4.7869   16.8406 H   0  0  0  0  0  0  0  0  0  0  0  0
   11.0981   -3.9287   13.7472 H   0  0  0  0  0  0  0  0  0  0  0  0
   13.0483   -3.0776   13.6313 H   0  0  0  0  0  0  0  0  0  0  0  0
   13.4792   -3.2585   15.3942 H   0  0  0  0  0  0  0  0  0  0  0  0
   13.3158   -0.9700   13.9160 H   0  0  0  0  0  0  0  0  0  0  0  0
   12.8735   -1.0071   15.5977 H   0  0  0  0  0  0  0  0  0  0  0  0
   11.2580   -1.5833   13.1688 H   0  0  0  0  0  0  0  0  0  0  0  0
   10.7378   -0.3353   14.2354 H   0  0  0  0  0  0  0  0  0  0  0  0
    9.4386   -2.4986   14.8098 H   0  0  0  0  0  0  0  0  0  0  0  0
   10.5753   -2.1307   16.1086 H   0  0  0  0  0  0  0  0  0  0  0  0
    4.5771  -13.8526   18.7237 H   0  0  0  0  0  0  0  0  0  0  0  0
    2.6261  -15.3057   19.7863 H   0  0  0  0  0  0  0  0  0  0  0  0
    2.2142  -14.3424   19.5319 H   0  0  0  0  0  0  0  0  0  0  0  0
    0.4801  -17.0481   19.8074 H   0  0  0  0  0  0  0  0  0  0  0  0
   -0.2303  -17.4390   21.2674 H   0  0  0  0  0  0  0  0  0  0  0  0
   -1.7269  -16.0139   18.9622 H   0  0  0  0  0  0  0  0  0  0  0  0
   -2.2255  -17.1207   20.1600 H   0  0  0  0  0  0  0  0  0  0  0  0
   -2.1794  -14.0625   20.1857 H   0  0  0  0  0  0  0  0  0  0  0  0
   -3.0742  -15.2530   21.0398 H   0  0  0  0  0  0  0  0  0  0  0  0
   -0.2131  -13.9568   22.4724 H   0  0  0  0  0  0  0  0  0  0  0  0
   -1.1414  -15.0378   23.1367 H   0  0  0  0  0  0  0  0  0  0  0  0
  1  2  1  0
  2  3  1  0
  3  4  1  0
  4  5  1  0
  5  6  2  0
  5  7  1  0
  7  8  1  0
  8  9  2  0
  9 10  1  0
 10 11  1  0
 11 12  1  0
 12 13  1  0
 13 14  1  0
 14 15  1  0
 10 16  1  0
  2 17  1  0
 17 18  1  0
 18 19  2  0
 18 20  1  0
 20 21  1  0
 21 22  1  0
 22 23  1  0
 23 24  1  0
 24 25  1  0
 16  7  2  0
 25 21  1  0
 15 11  1  0
  1 26  1  0
  1 27  1  0
  1 28  1  0
  2 29  1  0
  3 30  1  0
  3 31  1  0
  4 32  1  0
  8 33  1  0
  9 34  1  0
 11 35  1  0
 12 36  1  0
 12 37  1  0
 13 38  1  0
 13 39  1  0
 14 40  1  0
 14 41  1  0
 15 42  1  0
 15 43  1  0
 17 44  1  0
 20 45  1  0
 20 46  1  0
 22 47  1  0
 22 48  1  0
 23 49  1  0
 23 50  1  0
 24 51  1  0
 24 52  1  0
 25 53  1  0
 25 54  1  0
M  END
>  <Energy>  (1067) 
1320.0544569206072

>  <compound_id>  (1067) 
8748

>  <target_id>  (1067) 
1

>  <reference_id>  (1067) 
124

>  <inspiration_ids>  (1067) 
[96, 124]

>  <energy_score>  (1067) 
1186.7555065258598

>  <distance_score>  (1067) 
11.081765058982178

>  <path>  (1067) 
/opt/xchem-fragalysis-2/maxwin/BulkDock/SCRATCH/511015/C8748-P124/C8748-P124.minimised.mol

>  <scratch_subdir>  (1067) 
/opt/xchem-fragalysis-2/maxwin/BulkDock/SCRATCH/511015/C8748-P124

>  <fragmenstein_runtime>  (1067) 
75.25387048721313

>  <fragmenstein_outcome>  (1067) 
too moved

>  <fragmenstein_mode>  (1067) 
expansion

>  <fragmenstein_error>  (1067) 


$$$$
C8749-P96
     RDKit          3D

 46 48  0  0  0  0  0  0  0  0999 V2000
    1.3404  -11.2719   22.4491 C   0  0  0  0  0  0  0  0  0  0  0  0
    0.3898  -11.5139   24.0532 C   0  0  0  0  0  0  0  0  0  0  0  0
   -1.6292  -12.1724   23.8706 C   0  0  0  0  0  0  0  0  0  0  0  0
   -2.8497  -13.1219   24.7095 N   0  0  0  0  0  0  0  0  0  0  0  0
   -4.0849  -13.5700   24.0582 C   0  0  0  0  0  0  0  0  0  0  0  0
   -4.8124  -14.4710   25.0678 C   0  0  0  0  0  0  0  0  0  0  0  0
   -3.8261  -14.6495   26.2055 C   0  0  0  0  0  0  0  0  0  0  0  0
   -3.0094  -13.3565   26.1575 C   0  0  0  0  0  0  0  0  0  0  0  0
    1.8363  -11.7434   25.1184 O   0  0  0  0  0  0  0  0  0  0  0  0
    3.4587  -11.7485   24.6452 C   0  0  0  0  0  0  0  0  0  0  0  0
    3.8341  -12.6392   23.8890 O   0  0  0  0  0  0  0  0  0  0  0  0
    4.6989  -10.4402   25.0387 C   0  0  0  0  0  0  0  0  0  0  0  0
    4.7956   -9.3128   25.9768 C   0  0  0  0  0  0  0  0  0  0  0  0
    5.7088   -8.3787   25.6577 N   0  0  0  0  0  0  0  0  0  0  0  0
    6.3066   -8.8515   24.5527 N   0  0  0  0  0  0  0  0  0  0  0  0
    7.4551   -8.1919   23.9443 C   0  0  0  0  0  0  0  0  0  0  0  0
    7.1570   -7.3551   22.6940 C   0  0  0  0  0  0  0  0  0  0  0  0
    8.3742   -6.4389   22.5312 C   0  0  0  0  0  0  0  0  0  0  0  0
    9.1198   -6.4742   23.8656 C   0  0  0  0  0  0  0  0  0  0  0  0
    8.1929   -7.1921   24.8371 C   0  0  0  0  0  0  0  0  0  0  0  0
    5.7189  -10.0188   24.1190 C   0  0  0  0  0  0  0  0  0  0  0  0
    1.4576  -12.1889   21.8845 H   0  0  0  0  0  0  0  0  0  0  0  0
    2.4143  -11.2646   22.4980 H   0  0  0  0  0  0  0  0  0  0  0  0
    1.0405  -10.4423   21.8293 H   0  0  0  0  0  0  0  0  0  0  0  0
    0.2552  -10.4686   24.3906 H   0  0  0  0  0  0  0  0  0  0  0  0
   -2.3361  -11.3742   23.7342 H   0  0  0  0  0  0  0  0  0  0  0  0
   -1.4583  -12.8550   23.0162 H   0  0  0  0  0  0  0  0  0  0  0  0
   -3.8740  -14.1648   23.1702 H   0  0  0  0  0  0  0  0  0  0  0  0
   -4.7239  -12.7221   23.7931 H   0  0  0  0  0  0  0  0  0  0  0  0
   -5.1091  -15.4303   24.6325 H   0  0  0  0  0  0  0  0  0  0  0  0
   -5.7149  -13.9656   25.4311 H   0  0  0  0  0  0  0  0  0  0  0  0
   -3.1827  -15.5171   26.0166 H   0  0  0  0  0  0  0  0  0  0  0  0
   -4.3247  -14.7930   27.1685 H   0  0  0  0  0  0  0  0  0  0  0  0
   -2.0799  -13.4654   26.7162 H   0  0  0  0  0  0  0  0  0  0  0  0
   -3.6030  -12.5661   26.6327 H   0  0  0  0  0  0  0  0  0  0  0  0
    4.1949   -9.1341   26.8587 H   0  0  0  0  0  0  0  0  0  0  0  0
    8.1514   -8.9993   23.6764 H   0  0  0  0  0  0  0  0  0  0  0  0
    6.9964   -7.9823   21.8114 H   0  0  0  0  0  0  0  0  0  0  0  0
    6.2529   -6.7512   22.8400 H   0  0  0  0  0  0  0  0  0  0  0  0
    9.0299   -6.7931   21.7285 H   0  0  0  0  0  0  0  0  0  0  0  0
    8.0588   -5.4205   22.2814 H   0  0  0  0  0  0  0  0  0  0  0  0
    9.3842   -5.4719   24.2163 H   0  0  0  0  0  0  0  0  0  0  0  0
   10.0518   -7.0404   23.7508 H   0  0  0  0  0  0  0  0  0  0  0  0
    8.7434   -7.6810   25.6471 H   0  0  0  0  0  0  0  0  0  0  0  0
    7.5021   -6.4684   25.2872 H   0  0  0  0  0  0  0  0  0  0  0  0
    6.0352  -10.3801   23.1630 H   0  0  0  0  0  0  0  0  0  0  0  0
  1  2  1  0
  2  3  1  0
  3  4  1  0
  4  5  1  0
  5  6  1  0
  6  7  1  0
  7  8  1  0
  2  9  1  0
  9 10  1  0
 10 11  2  0
 10 12  1  0
 12 13  1  0
 13 14  2  0
 14 15  1  0
 15 16  1  0
 16 17  1  0
 17 18  1  0
 18 19  1  0
 19 20  1  0
 15 21  1  0
  8  4  1  0
 21 12  2  0
 20 16  1  0
  1 22  1  0
  1 23  1  0
  1 24  1  0
  2 25  1  0
  3 26  1  0
  3 27  1  0
  5 28  1  0
  5 29  1  0
  6 30  1  0
  6 31  1  0
  7 32  1  0
  7 33  1  0
  8 34  1  0
  8 35  1  0
 13 36  1  0
 16 37  1  0
 17 38  1  0
 17 39  1  0
 18 40  1  0
 18 41  1  0
 19 42  1  0
 19 43  1  0
 20 44  1  0
 20 45  1  0
 21 46  1  0
M  END
>  <Energy>  (1068) 
390.11297807610526

>  <compound_id>  (1068) 
8749

>  <target_id>  (1068) 
1

>  <reference_id>  (1068) 
96

>  <inspiration_ids>  (1068) 
[96, 124]

>  <energy_score>  (1068) 
317.2549238128173

>  <distance_score>  (1068) 
14.423703473133187

>  <path>  (1068) 
/opt/xchem-fragalysis-2/maxwin/BulkDock/SCRATCH/511015/C8749-P96/C8749-P96.minimised.mol

>  <scratch_subdir>  (1068) 
/opt/xchem-fragalysis-2/maxwin/BulkDock/SCRATCH/511015/C8749-P96

>  <fragmenstein_runtime>  (1068) 
40.76149320602417

>  <fragmenstein_outcome>  (1068) 
too moved

>  <fragmenstein_mode>  (1068) 
expansion

>  <fragmenstein_error>  (1068) 


$$$$
C8749-P124
     RDKit          3D

 46 48  0  0  0  0  0  0  0  0999 V2000
    4.6925  -15.2845   18.0129 C   0  0  0  0  0  0  0  0  0  0  0  0
    3.6512  -13.8489   18.1279 C   0  0  0  0  0  0  0  0  0  0  0  0
    2.0108  -15.1165   18.5190 C   0  0  0  0  0  0  0  0  0  0  0  0
    0.8318  -16.3309   19.7625 N   0  0  0  0  0  0  0  0  0  0  0  0
    0.5166  -17.9927   18.8877 C   0  0  0  0  0  0  0  0  0  0  0  0
   -0.2064  -18.9652   19.8589 C   0  0  0  0  0  0  0  0  0  0  0  0
   -1.1408  -18.0578   20.5977 C   0  0  0  0  0  0  0  0  0  0  0  0
   -0.8911  -16.6436   20.0061 C   0  0  0  0  0  0  0  0  0  0  0  0
    4.1868  -12.2514   16.9640 O   0  0  0  0  0  0  0  0  0  0  0  0
    4.7810  -11.6650   15.2207 C   0  0  0  0  0  0  0  0  0  0  0  0
    3.9872  -11.8666   14.2907 O   0  0  0  0  0  0  0  0  0  0  0  0
    6.4374  -10.7096   14.5888 C   0  0  0  0  0  0  0  0  0  0  0  0
    6.5927   -9.4877   13.6495 C   0  0  0  0  0  0  0  0  0  0  0  0
    7.5527   -8.4705   13.7138 N   0  0  0  0  0  0  0  0  0  0  0  0
    8.7015   -8.6772   14.6943 N   0  0  0  0  0  0  0  0  0  0  0  0
    9.8770   -7.2122   15.2221 C   0  0  0  0  0  0  0  0  0  0  0  0
   10.4828   -5.1783   14.6708 C   0  0  0  0  0  0  0  0  0  0  0  0
   11.3355   -4.2162   15.5534 C   0  0  0  0  0  0  0  0  0  0  0  0
   11.9819   -5.1393   16.4733 C   0  0  0  0  0  0  0  0  0  0  0  0
   11.5447   -6.6282   16.0754 C   0  0  0  0  0  0  0  0  0  0  0  0
    7.9701  -10.2020   15.1827 C   0  0  0  0  0  0  0  0  0  0  0  0
    4.4959  -15.9176   17.1426 H   0  0  0  0  0  0  0  0  0  0  0  0
    4.4308  -16.0695   18.7121 H   0  0  0  0  0  0  0  0  0  0  0  0
    5.7554  -15.1190   18.1805 H   0  0  0  0  0  0  0  0  0  0  0  0
    4.0524  -13.3691   19.0244 H   0  0  0  0  0  0  0  0  0  0  0  0
    2.4309  -14.9155   19.5033 H   0  0  0  0  0  0  0  0  0  0  0  0
    2.3950  -15.9039   17.8574 H   0  0  0  0  0  0  0  0  0  0  0  0
   -0.2213  -18.0196   18.0856 H   0  0  0  0  0  0  0  0  0  0  0  0
    1.4173  -18.3777   18.3807 H   0  0  0  0  0  0  0  0  0  0  0  0
   -0.7548  -19.7302   19.2967 H   0  0  0  0  0  0  0  0  0  0  0  0
    0.4617  -19.5023   20.5399 H   0  0  0  0  0  0  0  0  0  0  0  0
   -2.1799  -18.3596   20.4145 H   0  0  0  0  0  0  0  0  0  0  0  0
   -0.9712  -18.1665   21.6650 H   0  0  0  0  0  0  0  0  0  0  0  0
   -1.4668  -16.7599   19.0661 H   0  0  0  0  0  0  0  0  0  0  0  0
   -1.4874  -15.8051   20.3002 H   0  0  0  0  0  0  0  0  0  0  0  0
    5.7886   -9.2663   12.9551 H   0  0  0  0  0  0  0  0  0  0  0  0
    8.7732   -6.9102   15.0699 H   0  0  0  0  0  0  0  0  0  0  0  0
    9.6140   -4.4855   14.7690 H   0  0  0  0  0  0  0  0  0  0  0  0
   10.8360   -4.9550   13.6394 H   0  0  0  0  0  0  0  0  0  0  0  0
   12.0526   -3.6498   14.9453 H   0  0  0  0  0  0  0  0  0  0  0  0
   10.7593   -3.4414   16.0539 H   0  0  0  0  0  0  0  0  0  0  0  0
   11.7906   -4.7917   17.4784 H   0  0  0  0  0  0  0  0  0  0  0  0
   13.0676   -5.0311   16.3724 H   0  0  0  0  0  0  0  0  0  0  0  0
   12.0521   -7.3059   16.7087 H   0  0  0  0  0  0  0  0  0  0  0  0
   12.4043   -6.9733   15.5528 H   0  0  0  0  0  0  0  0  0  0  0  0
    8.5047  -10.5276   16.0652 H   0  0  0  0  0  0  0  0  0  0  0  0
  1  2  1  0
  2  3  1  0
  3  4  1  0
  4  5  1  0
  5  6  1  0
  6  7  1  0
  7  8  1  0
  2  9  1  0
  9 10  1  0
 10 11  2  0
 10 12  1  0
 12 13  1  0
 13 14  2  0
 14 15  1  0
 15 16  1  0
 16 17  1  0
 17 18  1  0
 18 19  1  0
 19 20  1  0
 15 21  1  0
  8  4  1  0
 21 12  2  0
 20 16  1  0
  1 22  1  0
  1 23  1  0
  1 24  1  0
  2 25  1  0
  3 26  1  0
  3 27  1  0
  5 28  1  0
  5 29  1  0
  6 30  1  0
  6 31  1  0
  7 32  1  0
  7 33  1  0
  8 34  1  0
  8 35  1  0
 13 36  1  0
 16 37  1  0
 17 38  1  0
 17 39  1  0
 18 40  1  0
 18 41  1  0
 19 42  1  0
 19 43  1  0
 20 44  1  0
 20 45  1  0
 21 46  1  0
M  END
>  <Energy>  (1069) 
1395.7353937753276

>  <compound_id>  (1069) 
8749

>  <target_id>  (1069) 
1

>  <reference_id>  (1069) 
124

>  <inspiration_ids>  (1069) 
[96, 124]

>  <energy_score>  (1069) 
1322.8773395120475

>  <distance_score>  (1069) 
13.100634835160205

>  <path>  (1069) 
/opt/xchem-fragalysis-2/maxwin/BulkDock/SCRATCH/511015/C8749-P124/C8749-P124.minimised.mol

>  <scratch_subdir>  (1069) 
/opt/xchem-fragalysis-2/maxwin/BulkDock/SCRATCH/511015/C8749-P124

>  <fragmenstein_runtime>  (1069) 
64.99861145019531

>  <fragmenstein_outcome>  (1069) 
too moved

>  <fragmenstein_mode>  (1069) 
expansion

>  <fragmenstein_error>  (1069) 


$$$$
C8750-P96
     RDKit          3D

 50 52  0  0  0  0  0  0  0  0999 V2000
   -3.9090  -11.4807   23.1814 C   0  0  0  0  0  0  0  0  0  0  0  0
   -4.0680  -11.2696   24.7041 C   0  0  0  0  0  0  0  0  0  0  0  0
   -5.3024  -10.3759   24.9395 C   0  0  0  0  0  0  0  0  0  0  0  0
   -2.7691  -10.4264   25.2251 C   0  0  0  0  0  0  0  0  0  0  0  0
   -2.1897   -9.2265   24.4922 N   0  0  0  0  0  0  0  0  0  0  0  0
   -1.0503   -8.3442   24.8304 C   0  0  0  0  0  0  0  0  0  0  0  0
   -0.3552   -8.3115   25.8053 O   0  0  0  0  0  0  0  0  0  0  0  0
   -0.6263   -7.3090   23.7302 C   0  0  0  0  0  0  0  0  0  0  0  0
   -1.4032   -6.6635   22.7263 C   0  0  0  0  0  0  0  0  0  0  0  0
   -0.5697   -5.7654   22.0833 C   0  0  0  0  0  0  0  0  0  0  0  0
    0.6604   -5.8763   22.6705 N   0  0  0  0  0  0  0  0  0  0  0  0
    1.8111   -5.0259   22.3671 C   0  0  0  0  0  0  0  0  0  0  0  0
    2.6489   -5.4233   21.1314 C   0  0  0  0  0  0  0  0  0  0  0  0
    4.0941   -5.0145   21.4369 C   0  0  0  0  0  0  0  0  0  0  0  0
    4.0313   -4.2417   22.7502 C   0  0  0  0  0  0  0  0  0  0  0  0
    2.8344   -4.8320   23.4861 C   0  0  0  0  0  0  0  0  0  0  0  0
    0.6677   -6.8604   23.6094 N   0  0  0  0  0  0  0  0  0  0  0  0
   -4.2014  -12.6281   25.3528 N   0  0  0  0  0  0  0  0  0  0  0  0
   -4.4459  -12.6921   26.7945 C   0  0  0  0  0  0  0  0  0  0  0  0
   -4.6551  -14.1836   27.0440 C   0  0  0  0  0  0  0  0  0  0  0  0
   -5.4425  -14.6443   25.8344 C   0  0  0  0  0  0  0  0  0  0  0  0
   -5.1704  -13.5805   24.7671 C   0  0  0  0  0  0  0  0  0  0  0  0
   -4.8132  -11.9056   22.7307 H   0  0  0  0  0  0  0  0  0  0  0  0
   -3.0782  -12.1595   22.9621 H   0  0  0  0  0  0  0  0  0  0  0  0
   -3.7245  -10.5386   22.6559 H   0  0  0  0  0  0  0  0  0  0  0  0
   -5.2034   -9.4269   24.3995 H   0  0  0  0  0  0  0  0  0  0  0  0
   -5.4281  -10.1304   25.9992 H   0  0  0  0  0  0  0  0  0  0  0  0
   -6.2259  -10.8485   24.5904 H   0  0  0  0  0  0  0  0  0  0  0  0
   -1.9360  -11.1293   25.2981 H   0  0  0  0  0  0  0  0  0  0  0  0
   -2.9507  -10.0825   26.2509 H   0  0  0  0  0  0  0  0  0  0  0  0
   -2.4932   -9.0289   23.5477 H   0  0  0  0  0  0  0  0  0  0  0  0
   -2.4600   -6.7892   22.5348 H   0  0  0  0  0  0  0  0  0  0  0  0
   -0.7639   -5.0472   21.2976 H   0  0  0  0  0  0  0  0  0  0  0  0
    1.3758   -4.0364   22.1601 H   0  0  0  0  0  0  0  0  0  0  0  0
    2.5984   -6.4943   20.9183 H   0  0  0  0  0  0  0  0  0  0  0  0
    2.2769   -4.9047   20.2404 H   0  0  0  0  0  0  0  0  0  0  0  0
    4.5336   -4.4175   20.6319 H   0  0  0  0  0  0  0  0  0  0  0  0
    4.7110   -5.9123   21.5599 H   0  0  0  0  0  0  0  0  0  0  0  0
    3.8581   -3.1779   22.5473 H   0  0  0  0  0  0  0  0  0  0  0  0
    4.9574   -4.3288   23.3256 H   0  0  0  0  0  0  0  0  0  0  0  0
    2.4651   -4.1611   24.2685 H   0  0  0  0  0  0  0  0  0  0  0  0
    3.1117   -5.7751   23.9650 H   0  0  0  0  0  0  0  0  0  0  0  0
   -5.3483  -12.1411   27.0822 H   0  0  0  0  0  0  0  0  0  0  0  0
   -3.5985  -12.3130   27.3734 H   0  0  0  0  0  0  0  0  0  0  0  0
   -5.1801  -14.3805   27.9833 H   0  0  0  0  0  0  0  0  0  0  0  0
   -3.6877  -14.6998   27.0789 H   0  0  0  0  0  0  0  0  0  0  0  0
   -5.1333  -15.6440   25.5138 H   0  0  0  0  0  0  0  0  0  0  0  0
   -6.5118  -14.6694   26.0697 H   0  0  0  0  0  0  0  0  0  0  0  0
   -6.1154  -13.0946   24.5017 H   0  0  0  0  0  0  0  0  0  0  0  0
   -4.7587  -14.0475   23.8663 H   0  0  0  0  0  0  0  0  0  0  0  0
  1  2  1  0
  2  3  1  0
  2  4  1  0
  4  5  1  0
  5  6  1  0
  6  7  2  0
  6  8  1  0
  8  9  1  0
  9 10  2  0
 10 11  1  0
 11 12  1  0
 12 13  1  0
 13 14  1  0
 14 15  1  0
 15 16  1  0
 11 17  1  0
  2 18  1  0
 18 19  1  0
 19 20  1  0
 20 21  1  0
 21 22  1  0
 17  8  2  0
 22 18  1  0
 16 12  1  0
  1 23  1  0
  1 24  1  0
  1 25  1  0
  3 26  1  0
  3 27  1  0
  3 28  1  0
  4 29  1  0
  4 30  1  0
  5 31  1  0
  9 32  1  0
 10 33  1  0
 12 34  1  0
 13 35  1  0
 13 36  1  0
 14 37  1  0
 14 38  1  0
 15 39  1  0
 15 40  1  0
 16 41  1  0
 16 42  1  0
 19 43  1  0
 19 44  1  0
 20 45  1  0
 20 46  1  0
 21 47  1  0
 21 48  1  0
 22 49  1  0
 22 50  1  0
M  END
>  <Energy>  (1070) 
96.978421359429888

>  <compound_id>  (1070) 
8750

>  <target_id>  (1070) 
1

>  <reference_id>  (1070) 
96

>  <inspiration_ids>  (1070) 
[96, 124]

>  <energy_score>  (1070) 
-14.987209200736515

>  <distance_score>  (1070) 
15.519683146953843

>  <path>  (1070) 
/opt/xchem-fragalysis-2/maxwin/BulkDock/SCRATCH/511015/C8750-P96/C8750-P96.minimised.mol

>  <scratch_subdir>  (1070) 
/opt/xchem-fragalysis-2/maxwin/BulkDock/SCRATCH/511015/C8750-P96

>  <fragmenstein_runtime>  (1070) 
117.51507663726807

>  <fragmenstein_outcome>  (1070) 
too moved

>  <fragmenstein_mode>  (1070) 
expansion

>  <fragmenstein_error>  (1070) 


$$$$
C8750-P124
     RDKit          3D

 50 52  0  0  0  0  0  0  0  0999 V2000
    1.4477  -13.9095   17.0483 C   0  0  0  0  0  0  0  0  0  0  0  0
    3.0634  -13.3063   18.0631 C   0  0  0  0  0  0  0  0  0  0  0  0
    4.3086  -13.1896   19.1388 C   0  0  0  0  0  0  0  0  0  0  0  0
    3.5300  -11.7290   16.8713 C   0  0  0  0  0  0  0  0  0  0  0  0
    3.6476  -10.2767   16.9021 N   0  0  0  0  0  0  0  0  0  0  0  0
    4.7960   -9.4322   17.0095 C   0  0  0  0  0  0  0  0  0  0  0  0
    5.9495   -9.7005   17.1808 O   0  0  0  0  0  0  0  0  0  0  0  0
    4.4513   -7.9871   16.9985 C   0  0  0  0  0  0  0  0  0  0  0  0
    5.2195   -6.9963   17.6723 C   0  0  0  0  0  0  0  0  0  0  0  0
    4.3795   -5.9268   17.7648 C   0  0  0  0  0  0  0  0  0  0  0  0
    3.3508   -6.1661   16.9123 N   0  0  0  0  0  0  0  0  0  0  0  0
    2.2598   -5.2516   16.6193 C   0  0  0  0  0  0  0  0  0  0  0  0
    1.7160   -4.5206   17.8643 C   0  0  0  0  0  0  0  0  0  0  0  0
    2.0578   -3.0487   17.6626 C   0  0  0  0  0  0  0  0  0  0  0  0
    1.9280   -2.8811   16.1613 C   0  0  0  0  0  0  0  0  0  0  0  0
    2.6301   -4.1245   15.6400 C   0  0  0  0  0  0  0  0  0  0  0  0
    3.3286   -7.4482   16.4781 N   0  0  0  0  0  0  0  0  0  0  0  0
    2.9297  -14.9846   18.5932 N   0  0  0  0  0  0  0  0  0  0  0  0
    2.1391  -15.9995   17.9229 C   0  0  0  0  0  0  0  0  0  0  0  0
    1.0212  -17.5272   18.6283 C   0  0  0  0  0  0  0  0  0  0  0  0
    0.6064  -16.4922   20.1849 C   0  0  0  0  0  0  0  0  0  0  0  0
    2.0898  -15.1548   20.1255 C   0  0  0  0  0  0  0  0  0  0  0  0
    1.5493  -14.6794   16.2713 H   0  0  0  0  0  0  0  0  0  0  0  0
    1.1488  -13.2676   16.1509 H   0  0  0  0  0  0  0  0  0  0  0  0
    0.5712  -13.7168   17.6736 H   0  0  0  0  0  0  0  0  0  0  0  0
    5.0419  -13.9714   18.9838 H   0  0  0  0  0  0  0  0  0  0  0  0
    4.0779  -13.0611   20.2057 H   0  0  0  0  0  0  0  0  0  0  0  0
    4.9571  -12.3154   19.0766 H   0  0  0  0  0  0  0  0  0  0  0  0
    2.8350  -11.7213   15.9976 H   0  0  0  0  0  0  0  0  0  0  0  0
    4.4723  -11.9079   16.3956 H   0  0  0  0  0  0  0  0  0  0  0  0
    2.8169   -9.6974   16.8425 H   0  0  0  0  0  0  0  0  0  0  0  0
    6.1140   -7.1475   18.2546 H   0  0  0  0  0  0  0  0  0  0  0  0
    4.3826   -5.0779   18.4194 H   0  0  0  0  0  0  0  0  0  0  0  0
    1.4509   -5.8595   16.1933 H   0  0  0  0  0  0  0  0  0  0  0  0
    0.6233   -4.6280   17.8837 H   0  0  0  0  0  0  0  0  0  0  0  0
    2.0822   -4.9014   18.8225 H   0  0  0  0  0  0  0  0  0  0  0  0
    1.3806   -2.3898   18.2135 H   0  0  0  0  0  0  0  0  0  0  0  0
    3.0818   -2.8403   17.9904 H   0  0  0  0  0  0  0  0  0  0  0  0
    0.8740   -2.8794   15.8600 H   0  0  0  0  0  0  0  0  0  0  0  0
    2.3931   -1.9588   15.8021 H   0  0  0  0  0  0  0  0  0  0  0  0
    2.3443   -4.3606   14.6106 H   0  0  0  0  0  0  0  0  0  0  0  0
    3.7014   -3.9161   15.6576 H   0  0  0  0  0  0  0  0  0  0  0  0
    1.4319  -15.3203   18.1636 H   0  0  0  0  0  0  0  0  0  0  0  0
    2.2904  -16.0153   16.8137 H   0  0  0  0  0  0  0  0  0  0  0  0
    0.0302  -17.9163   18.3001 H   0  0  0  0  0  0  0  0  0  0  0  0
    1.5310  -18.4997   18.5123 H   0  0  0  0  0  0  0  0  0  0  0  0
   -0.4566  -16.2295   20.1100 H   0  0  0  0  0  0  0  0  0  0  0  0
    0.5263  -17.2212   20.9797 H   0  0  0  0  0  0  0  0  0  0  0  0
    2.0617  -14.1601   20.1628 H   0  0  0  0  0  0  0  0  0  0  0  0
    2.5779  -14.9213   21.0230 H   0  0  0  0  0  0  0  0  0  0  0  0
  1  2  1  0
  2  3  1  0
  2  4  1  0
  4  5  1  0
  5  6  1  0
  6  7  2  0
  6  8  1  0
  8  9  1  0
  9 10  2  0
 10 11  1  0
 11 12  1  0
 12 13  1  0
 13 14  1  0
 14 15  1  0
 15 16  1  0
 11 17  1  0
  2 18  1  0
 18 19  1  0
 19 20  1  0
 20 21  1  0
 21 22  1  0
 17  8  2  0
 22 18  1  0
 16 12  1  0
  1 23  1  0
  1 24  1  0
  1 25  1  0
  3 26  1  0
  3 27  1  0
  3 28  1  0
  4 29  1  0
  4 30  1  0
  5 31  1  0
  9 32  1  0
 10 33  1  0
 12 34  1  0
 13 35  1  0
 13 36  1  0
 14 37  1  0
 14 38  1  0
 15 39  1  0
 15 40  1  0
 16 41  1  0
 16 42  1  0
 19 43  1  0
 19 44  1  0
 20 45  1  0
 20 46  1  0
 21 47  1  0
 21 48  1  0
 22 49  1  0
 22 50  1  0
M  END
>  <Energy>  (1071) 
646.75937762494004

>  <compound_id>  (1071) 
8750

>  <target_id>  (1071) 
1

>  <reference_id>  (1071) 
124

>  <inspiration_ids>  (1071) 
[96, 124]

>  <energy_score>  (1071) 
534.7937470647774

>  <distance_score>  (1071) 
14.569572887512205

>  <path>  (1071) 
/opt/xchem-fragalysis-2/maxwin/BulkDock/SCRATCH/511015/C8750-P124/C8750-P124.minimised.mol

>  <scratch_subdir>  (1071) 
/opt/xchem-fragalysis-2/maxwin/BulkDock/SCRATCH/511015/C8750-P124

>  <fragmenstein_runtime>  (1071) 
149.2082483768463

>  <fragmenstein_outcome>  (1071) 
too moved

>  <fragmenstein_mode>  (1071) 
expansion

>  <fragmenstein_error>  (1071) 


$$$$
C8751-P96
     RDKit          3D

 50 52  0  0  0  0  0  0  0  0999 V2000
   -5.4984  -13.8678   13.9058 C   0  0  0  0  0  0  0  0  0  0  0  0
   -4.4921  -15.0125   14.0144 C   0  0  0  0  0  0  0  0  0  0  0  0
   -3.6412  -15.1195   12.6338 C   0  0  0  0  0  0  0  0  0  0  0  0
   -2.6063  -14.0648   12.2762 N   0  0  0  0  0  0  0  0  0  0  0  0
   -2.3870  -13.3147   11.0354 C   0  0  0  0  0  0  0  0  0  0  0  0
   -3.0227  -13.2903   10.0162 O   0  0  0  0  0  0  0  0  0  0  0  0
   -1.1649  -12.2484   10.9944 C   0  0  0  0  0  0  0  0  0  0  0  0
   -1.1994  -11.1169   10.1006 C   0  0  0  0  0  0  0  0  0  0  0  0
   -0.0488  -10.3886   10.2749 C   0  0  0  0  0  0  0  0  0  0  0  0
    0.6480  -11.0217   11.2557 N   0  0  0  0  0  0  0  0  0  0  0  0
    1.9377  -10.5785   11.8135 C   0  0  0  0  0  0  0  0  0  0  0  0
    2.1418   -9.0378   11.9000 C   0  0  0  0  0  0  0  0  0  0  0  0
    3.3956   -8.7145   11.0846 C   0  0  0  0  0  0  0  0  0  0  0  0
    3.5302   -9.8864   10.1255 C   0  0  0  0  0  0  0  0  0  0  0  0
    3.1111  -11.0859   10.9656 C   0  0  0  0  0  0  0  0  0  0  0  0
    0.0368  -12.1941   11.6545 N   0  0  0  0  0  0  0  0  0  0  0  0
   -5.2836  -16.3990   14.4629 C   0  0  0  0  0  0  0  0  0  0  0  0
   -5.6984  -16.6331   15.8980 N   0  0  0  0  0  0  0  0  0  0  0  0
   -7.1340  -16.4343   16.1695 C   0  0  0  0  0  0  0  0  0  0  0  0
   -7.3529  -17.0859   17.5407 C   0  0  0  0  0  0  0  0  0  0  0  0
   -6.2862  -18.1657   17.6310 C   0  0  0  0  0  0  0  0  0  0  0  0
   -5.5133  -18.0454   16.3175 C   0  0  0  0  0  0  0  0  0  0  0  0
   -4.9948  -12.9275   13.6609 H   0  0  0  0  0  0  0  0  0  0  0  0
   -6.2379  -14.0686   13.1238 H   0  0  0  0  0  0  0  0  0  0  0  0
   -6.0332  -13.7234   14.8487 H   0  0  0  0  0  0  0  0  0  0  0  0
   -3.7866  -14.7457   14.8068 H   0  0  0  0  0  0  0  0  0  0  0  0
   -4.3382  -15.1752   11.7902 H   0  0  0  0  0  0  0  0  0  0  0  0
   -3.0787  -16.0586   12.6562 H   0  0  0  0  0  0  0  0  0  0  0  0
   -1.8137  -13.9047   12.9086 H   0  0  0  0  0  0  0  0  0  0  0  0
   -1.9983  -10.8967    9.4047 H   0  0  0  0  0  0  0  0  0  0  0  0
    0.3030   -9.4935    9.7833 H   0  0  0  0  0  0  0  0  0  0  0  0
    1.9689  -10.9960   12.8210 H   0  0  0  0  0  0  0  0  0  0  0  0
    2.2590   -8.7133   12.9383 H   0  0  0  0  0  0  0  0  0  0  0  0
    1.2858   -8.4760   11.5137 H   0  0  0  0  0  0  0  0  0  0  0  0
    4.2765   -8.6575   11.7308 H   0  0  0  0  0  0  0  0  0  0  0  0
    3.3074   -7.7592   10.5586 H   0  0  0  0  0  0  0  0  0  0  0  0
    4.5487   -9.9883    9.7397 H   0  0  0  0  0  0  0  0  0  0  0  0
    2.8540   -9.7611    9.2722 H   0  0  0  0  0  0  0  0  0  0  0  0
    2.8669  -11.9539   10.3448 H   0  0  0  0  0  0  0  0  0  0  0  0
    3.9442  -11.3674   11.6192 H   0  0  0  0  0  0  0  0  0  0  0  0
   -4.6264  -17.2222   14.1563 H   0  0  0  0  0  0  0  0  0  0  0  0
   -6.1602  -16.4980   13.8084 H   0  0  0  0  0  0  0  0  0  0  0  0
   -7.7528  -16.9475   15.4216 H   0  0  0  0  0  0  0  0  0  0  0  0
   -7.4174  -15.3782   16.1738 H   0  0  0  0  0  0  0  0  0  0  0  0
   -7.2122  -16.3536   18.3440 H   0  0  0  0  0  0  0  0  0  0  0  0
   -8.3626  -17.4986   17.6306 H   0  0  0  0  0  0  0  0  0  0  0  0
   -6.7206  -19.1629   17.7510 H   0  0  0  0  0  0  0  0  0  0  0  0
   -5.6302  -17.9729   18.4874 H   0  0  0  0  0  0  0  0  0  0  0  0
   -5.9401  -18.7319   15.5743 H   0  0  0  0  0  0  0  0  0  0  0  0
   -4.4614  -18.3057   16.4598 H   0  0  0  0  0  0  0  0  0  0  0  0
  1  2  1  0
  2  3  1  0
  3  4  1  0
  4  5  1  0
  5  6  2  0
  5  7  1  0
  7  8  1  0
  8  9  2  0
  9 10  1  0
 10 11  1  0
 11 12  1  0
 12 13  1  0
 13 14  1  0
 14 15  1  0
 10 16  1  0
  2 17  1  0
 17 18  1  0
 18 19  1  0
 19 20  1  0
 20 21  1  0
 21 22  1  0
 16  7  2  0
 22 18  1  0
 15 11  1  0
  1 23  1  0
  1 24  1  0
  1 25  1  0
  2 26  1  0
  3 27  1  0
  3 28  1  0
  4 29  1  0
  8 30  1  0
  9 31  1  0
 11 32  1  0
 12 33  1  0
 12 34  1  0
 13 35  1  0
 13 36  1  0
 14 37  1  0
 14 38  1  0
 15 39  1  0
 15 40  1  0
 17 41  1  0
 17 42  1  0
 19 43  1  0
 19 44  1  0
 20 45  1  0
 20 46  1  0
 21 47  1  0
 21 48  1  0
 22 49  1  0
 22 50  1  0
M  END
>  <Energy>  (1072) 
81.947822537756679

>  <compound_id>  (1072) 
8751

>  <target_id>  (1072) 
1

>  <reference_id>  (1072) 
96

>  <inspiration_ids>  (1072) 
[96, 124]

>  <energy_score>  (1072) 
-6.293544056029873

>  <distance_score>  (1072) 
16.984492420795764

>  <path>  (1072) 
/opt/xchem-fragalysis-2/maxwin/BulkDock/SCRATCH/511015/C8751-P96/C8751-P96.minimised.mol

>  <scratch_subdir>  (1072) 
/opt/xchem-fragalysis-2/maxwin/BulkDock/SCRATCH/511015/C8751-P96

>  <fragmenstein_runtime>  (1072) 
43.943647623062134

>  <fragmenstein_outcome>  (1072) 
too moved

>  <fragmenstein_mode>  (1072) 
expansion

>  <fragmenstein_error>  (1072) 


$$$$
C8751-P124
     RDKit          3D

 50 52  0  0  0  0  0  0  0  0999 V2000
   -6.5778  -10.7697   19.1529 C   0  0  0  0  0  0  0  0  0  0  0  0
   -5.8654  -10.5730   20.4909 C   0  0  0  0  0  0  0  0  0  0  0  0
   -5.2680   -9.1042   20.5815 C   0  0  0  0  0  0  0  0  0  0  0  0
   -3.8633   -8.7620   20.1582 N   0  0  0  0  0  0  0  0  0  0  0  0
   -3.3220   -8.3581   18.8531 C   0  0  0  0  0  0  0  0  0  0  0  0
   -3.8524   -8.2790   17.7801 O   0  0  0  0  0  0  0  0  0  0  0  0
   -1.8271   -7.8495   18.9127 C   0  0  0  0  0  0  0  0  0  0  0  0
   -1.0999   -7.3560   20.0457 C   0  0  0  0  0  0  0  0  0  0  0  0
    0.0820   -6.8249   19.5728 C   0  0  0  0  0  0  0  0  0  0  0  0
    0.0976   -7.0575   18.2298 N   0  0  0  0  0  0  0  0  0  0  0  0
    1.2116   -6.8092   17.3173 C   0  0  0  0  0  0  0  0  0  0  0  0
    2.1245   -5.6131   17.6524 C   0  0  0  0  0  0  0  0  0  0  0  0
    2.9030   -5.3273   16.3694 C   0  0  0  0  0  0  0  0  0  0  0  0
    2.0780   -5.9463   15.2407 C   0  0  0  0  0  0  0  0  0  0  0  0
    0.7957   -6.4661   15.8851 C   0  0  0  0  0  0  0  0  0  0  0  0
   -1.0575   -7.6425   17.7992 N   0  0  0  0  0  0  0  0  0  0  0  0
   -6.8824  -10.9455   21.7329 C   0  0  0  0  0  0  0  0  0  0  0  0
   -7.3452  -12.3453   21.9825 N   0  0  0  0  0  0  0  0  0  0  0  0
   -8.6407  -12.7328   21.4297 C   0  0  0  0  0  0  0  0  0  0  0  0
   -8.9422  -14.0754   22.1077 C   0  0  0  0  0  0  0  0  0  0  0  0
   -8.1945  -14.0297   23.4326 C   0  0  0  0  0  0  0  0  0  0  0  0
   -7.4562  -12.6920   23.4105 C   0  0  0  0  0  0  0  0  0  0  0  0
   -6.8787  -11.8125   19.0172 H   0  0  0  0  0  0  0  0  0  0  0  0
   -7.4740  -10.1442   19.0872 H   0  0  0  0  0  0  0  0  0  0  0  0
   -5.9176  -10.5064   18.3199 H   0  0  0  0  0  0  0  0  0  0  0  0
   -5.0077  -11.2422   20.4891 H   0  0  0  0  0  0  0  0  0  0  0  0
   -5.9200   -8.4204   20.0255 H   0  0  0  0  0  0  0  0  0  0  0  0
   -5.2983   -8.7928   21.6316 H   0  0  0  0  0  0  0  0  0  0  0  0
   -3.1121   -8.7920   20.8325 H   0  0  0  0  0  0  0  0  0  0  0  0
   -1.4312   -7.3244   21.0723 H   0  0  0  0  0  0  0  0  0  0  0  0
    0.8904   -6.3214   20.0803 H   0  0  0  0  0  0  0  0  0  0  0  0
    1.8035   -7.7339   17.3208 H   0  0  0  0  0  0  0  0  0  0  0  0
    2.7952   -5.8147   18.4899 H   0  0  0  0  0  0  0  0  0  0  0  0
    1.5220   -4.7358   17.9209 H   0  0  0  0  0  0  0  0  0  0  0  0
    3.8980   -5.7822   16.4084 H   0  0  0  0  0  0  0  0  0  0  0  0
    3.0405   -4.2505   16.2264 H   0  0  0  0  0  0  0  0  0  0  0  0
    1.8651   -5.2243   14.4462 H   0  0  0  0  0  0  0  0  0  0  0  0
    2.6340   -6.7759   14.7890 H   0  0  0  0  0  0  0  0  0  0  0  0
    0.3903   -7.3266   15.3445 H   0  0  0  0  0  0  0  0  0  0  0  0
    0.0297   -5.6800   15.8801 H   0  0  0  0  0  0  0  0  0  0  0  0
   -6.3551  -10.6049   22.6339 H   0  0  0  0  0  0  0  0  0  0  0  0
   -7.7552  -10.2835   21.6535 H   0  0  0  0  0  0  0  0  0  0  0  0
   -8.6139  -12.8386   20.3416 H   0  0  0  0  0  0  0  0  0  0  0  0
   -9.4184  -12.0042   21.6902 H   0  0  0  0  0  0  0  0  0  0  0  0
  -10.0179  -14.2184   22.2506 H   0  0  0  0  0  0  0  0  0  0  0  0
   -8.5706  -14.9067   21.4974 H   0  0  0  0  0  0  0  0  0  0  0  0
   -7.4918  -14.8678   23.4993 H   0  0  0  0  0  0  0  0  0  0  0  0
   -8.8772  -14.0925   24.2859 H   0  0  0  0  0  0  0  0  0  0  0  0
   -6.4788  -12.7752   23.8945 H   0  0  0  0  0  0  0  0  0  0  0  0
   -8.0446  -11.9373   23.9481 H   0  0  0  0  0  0  0  0  0  0  0  0
  1  2  1  0
  2  3  1  0
  3  4  1  0
  4  5  1  0
  5  6  2  0
  5  7  1  0
  7  8  1  0
  8  9  2  0
  9 10  1  0
 10 11  1  0
 11 12  1  0
 12 13  1  0
 13 14  1  0
 14 15  1  0
 10 16  1  0
  2 17  1  0
 17 18  1  0
 18 19  1  0
 19 20  1  0
 20 21  1  0
 21 22  1  0
 16  7  2  0
 22 18  1  0
 15 11  1  0
  1 23  1  0
  1 24  1  0
  1 25  1  0
  2 26  1  0
  3 27  1  0
  3 28  1  0
  4 29  1  0
  8 30  1  0
  9 31  1  0
 11 32  1  0
 12 33  1  0
 12 34  1  0
 13 35  1  0
 13 36  1  0
 14 37  1  0
 14 38  1  0
 15 39  1  0
 15 40  1  0
 17 41  1  0
 17 42  1  0
 19 43  1  0
 19 44  1  0
 20 45  1  0
 20 46  1  0
 21 47  1  0
 21 48  1  0
 22 49  1  0
 22 50  1  0
M  END
>  <Energy>  (1073) 
80.96447670460266

>  <compound_id>  (1073) 
8751

>  <target_id>  (1073) 
1

>  <reference_id>  (1073) 
124

>  <inspiration_ids>  (1073) 
[96, 124]

>  <energy_score>  (1073) 
-7.2768898891905565

>  <distance_score>  (1073) 
15.555034921279047

>  <path>  (1073) 
/opt/xchem-fragalysis-2/maxwin/BulkDock/SCRATCH/511015/C8751-P124/C8751-P124.minimised.mol

>  <scratch_subdir>  (1073) 
/opt/xchem-fragalysis-2/maxwin/BulkDock/SCRATCH/511015/C8751-P124

>  <fragmenstein_runtime>  (1073) 
103.20416593551636

>  <fragmenstein_outcome>  (1073) 
too moved

>  <fragmenstein_mode>  (1073) 
expansion

>  <fragmenstein_error>  (1073) 


$$$$
C8752-P96
     RDKit          3D

 52 54  0  0  0  0  0  0  0  0999 V2000
    6.6605   -7.7637   22.8594 O   0  0  0  0  0  0  0  0  0  0  0  0
    7.2112   -8.6640   23.3631 C   0  0  0  0  0  0  0  0  0  0  0  0
    6.6210   -9.8206   24.1808 N   0  0  0  0  0  0  0  0  0  0  0  0
    5.2498  -10.1636   24.4637 C   0  0  0  0  0  0  0  0  0  0  0  0
    4.2820  -10.8186   25.6583 C   0  0  0  0  0  0  0  0  0  0  0  0
    3.1101  -12.3390   25.6554 C   0  0  0  0  0  0  0  0  0  0  0  0
    1.9198  -13.7914   26.4307 C   0  0  0  0  0  0  0  0  0  0  0  0
    0.9112  -14.1093   27.7950 N   0  0  0  0  0  0  0  0  0  0  0  0
    1.1678  -14.0300   29.2481 C   0  0  0  0  0  0  0  0  0  0  0  0
   -0.0358  -14.6432   29.9860 C   0  0  0  0  0  0  0  0  0  0  0  0
   -0.6179  -15.6208   29.0091 C   0  0  0  0  0  0  0  0  0  0  0  0
   -0.3497  -14.9165   27.6909 C   0  0  0  0  0  0  0  0  0  0  0  0
    8.6480   -9.0583   23.3062 N   0  0  0  0  0  0  0  0  0  0  0  0
    9.6985   -8.5310   22.5781 C   0  0  0  0  0  0  0  0  0  0  0  0
   10.9964   -9.0024   22.2979 C   0  0  0  0  0  0  0  0  0  0  0  0
   11.6569   -8.2256   21.4288 N   0  0  0  0  0  0  0  0  0  0  0  0
   10.8157   -7.2038   21.1917 N   0  0  0  0  0  0  0  0  0  0  0  0
   11.1522   -6.1502   20.2512 C   0  0  0  0  0  0  0  0  0  0  0  0
   11.4565   -4.8047   20.9175 C   0  0  0  0  0  0  0  0  0  0  0  0
   12.3679   -4.0462   19.9493 C   0  0  0  0  0  0  0  0  0  0  0  0
   12.6544   -5.0045   18.8014 C   0  0  0  0  0  0  0  0  0  0  0  0
   12.3853   -6.3865   19.3760 C   0  0  0  0  0  0  0  0  0  0  0  0
    9.6350   -7.3445   21.8751 C   0  0  0  0  0  0  0  0  0  0  0  0
    7.3691  -10.3855   24.5441 H   0  0  0  0  0  0  0  0  0  0  0  0
    4.9308  -10.5584   23.5152 H   0  0  0  0  0  0  0  0  0  0  0  0
    4.9493   -9.1140   24.5468 H   0  0  0  0  0  0  0  0  0  0  0  0
    3.8226   -9.9179   26.0174 H   0  0  0  0  0  0  0  0  0  0  0  0
    4.7607  -10.6521   26.5697 H   0  0  0  0  0  0  0  0  0  0  0  0
    3.6004  -12.8539   24.8264 H   0  0  0  0  0  0  0  0  0  0  0  0
    2.2653  -11.7869   25.2387 H   0  0  0  0  0  0  0  0  0  0  0  0
    1.0712  -13.3852   25.9615 H   0  0  0  0  0  0  0  0  0  0  0  0
    2.2679  -14.7429   26.0265 H   0  0  0  0  0  0  0  0  0  0  0  0
    2.0653  -14.5696   29.5597 H   0  0  0  0  0  0  0  0  0  0  0  0
    1.2530  -13.0000   29.6043 H   0  0  0  0  0  0  0  0  0  0  0  0
    0.2547  -15.1160   30.9290 H   0  0  0  0  0  0  0  0  0  0  0  0
   -0.7690  -13.8585   30.2108 H   0  0  0  0  0  0  0  0  0  0  0  0
   -1.6834  -15.7994   29.1811 H   0  0  0  0  0  0  0  0  0  0  0  0
   -0.0971  -16.5801   29.0732 H   0  0  0  0  0  0  0  0  0  0  0  0
   -0.3654  -15.6507   26.8915 H   0  0  0  0  0  0  0  0  0  0  0  0
   -1.1886  -14.2220   27.5427 H   0  0  0  0  0  0  0  0  0  0  0  0
    8.7709   -9.9297   23.7856 H   0  0  0  0  0  0  0  0  0  0  0  0
   11.4843   -9.8995   22.6562 H   0  0  0  0  0  0  0  0  0  0  0  0
   10.2776   -6.0431   19.5961 H   0  0  0  0  0  0  0  0  0  0  0  0
   10.5396   -4.2448   21.1292 H   0  0  0  0  0  0  0  0  0  0  0  0
   11.9733   -4.9442   21.8754 H   0  0  0  0  0  0  0  0  0  0  0  0
   11.8974   -3.1259   19.5879 H   0  0  0  0  0  0  0  0  0  0  0  0
   13.2969   -3.7632   20.4570 H   0  0  0  0  0  0  0  0  0  0  0  0
   13.6725   -4.9020   18.4152 H   0  0  0  0  0  0  0  0  0  0  0  0
   11.9595   -4.7958   17.9824 H   0  0  0  0  0  0  0  0  0  0  0  0
   13.2478   -6.7139   19.9693 H   0  0  0  0  0  0  0  0  0  0  0  0
   12.2070   -7.1332   18.5963 H   0  0  0  0  0  0  0  0  0  0  0  0
    8.8572   -6.5991   21.8123 H   0  0  0  0  0  0  0  0  0  0  0  0
  1  2  2  0
  2  3  1  0
  3  4  1  0
  4  5  1  0
  5  6  1  0
  6  7  1  0
  7  8  1  0
  8  9  1  0
  9 10  1  0
 10 11  1  0
 11 12  1  0
  2 13  1  0
 13 14  1  0
 14 15  1  0
 15 16  2  0
 16 17  1  0
 17 18  1  0
 18 19  1  0
 19 20  1  0
 20 21  1  0
 21 22  1  0
 17 23  1  0
 12  8  1  0
 23 14  2  0
 22 18  1  0
  3 24  1  0
  4 25  1  0
  4 26  1  0
  5 27  1  0
  5 28  1  0
  6 29  1  0
  6 30  1  0
  7 31  1  0
  7 32  1  0
  9 33  1  0
  9 34  1  0
 10 35  1  0
 10 36  1  0
 11 37  1  0
 11 38  1  0
 12 39  1  0
 12 40  1  0
 13 41  1  0
 15 42  1  0
 18 43  1  0
 19 44  1  0
 19 45  1  0
 20 46  1  0
 20 47  1  0
 21 48  1  0
 21 49  1  0
 22 50  1  0
 22 51  1  0
 23 52  1  0
M  END
>  <Energy>  (1074) 
241.906052550743

>  <compound_id>  (1074) 
8752

>  <target_id>  (1074) 
1

>  <reference_id>  (1074) 
96

>  <inspiration_ids>  (1074) 
[96, 124]

>  <energy_score>  (1074) 
239.80123912863536

>  <distance_score>  (1074) 
12.197564186896928

>  <path>  (1074) 
/opt/xchem-fragalysis-2/maxwin/BulkDock/SCRATCH/511015/C8752-P96/C8752-P96.minimised.mol

>  <scratch_subdir>  (1074) 
/opt/xchem-fragalysis-2/maxwin/BulkDock/SCRATCH/511015/C8752-P96

>  <fragmenstein_runtime>  (1074) 
48.68336820602417

>  <fragmenstein_outcome>  (1074) 
too moved

>  <fragmenstein_mode>  (1074) 
expansion

>  <fragmenstein_error>  (1074) 


$$$$
C8752-P124
     RDKit          3D

 52 54  0  0  0  0  0  0  0  0999 V2000
   10.5751  -12.2719   18.3123 O   0  0  0  0  0  0  0  0  0  0  0  0
   10.5075  -13.3624   18.7658 C   0  0  0  0  0  0  0  0  0  0  0  0
    9.2400  -13.8957   19.8857 N   0  0  0  0  0  0  0  0  0  0  0  0
    7.7624  -12.8859   20.7578 C   0  0  0  0  0  0  0  0  0  0  0  0
    5.7520  -12.8067   20.5792 C   0  0  0  0  0  0  0  0  0  0  0  0
    3.9802  -12.7744   21.5927 C   0  0  0  0  0  0  0  0  0  0  0  0
    3.2583  -13.6303   23.3417 C   0  0  0  0  0  0  0  0  0  0  0  0
    4.1075  -14.8238   24.4267 N   0  0  0  0  0  0  0  0  0  0  0  0
    4.0625  -14.9954   25.9387 C   0  0  0  0  0  0  0  0  0  0  0  0
    3.4318  -16.6881   26.6847 C   0  0  0  0  0  0  0  0  0  0  0  0
    3.4790  -17.6359   25.2795 C   0  0  0  0  0  0  0  0  0  0  0  0
    4.3010  -16.3856   24.0270 C   0  0  0  0  0  0  0  0  0  0  0  0
   11.4090  -14.4766   18.6470 N   0  0  0  0  0  0  0  0  0  0  0  0
   12.6377  -14.5697   18.0468 C   0  0  0  0  0  0  0  0  0  0  0  0
   13.7802  -15.3672   18.0217 C   0  0  0  0  0  0  0  0  0  0  0  0
   14.7948  -14.8031   17.3315 N   0  0  0  0  0  0  0  0  0  0  0  0
   14.2845  -13.6444   16.8644 N   0  0  0  0  0  0  0  0  0  0  0  0
   15.0801  -12.6328   16.1870 C   0  0  0  0  0  0  0  0  0  0  0  0
   14.3444  -11.8876   15.0578 C   0  0  0  0  0  0  0  0  0  0  0  0
   15.4355  -11.3624   14.1239 C   0  0  0  0  0  0  0  0  0  0  0  0
   16.7416  -11.9945   14.5970 C   0  0  0  0  0  0  0  0  0  0  0  0
   16.3223  -13.1653   15.4727 C   0  0  0  0  0  0  0  0  0  0  0  0
   12.9919  -13.5007   17.2392 C   0  0  0  0  0  0  0  0  0  0  0  0
    9.3494  -14.8875   20.0629 H   0  0  0  0  0  0  0  0  0  0  0  0
    7.9833  -12.1035   20.0429 H   0  0  0  0  0  0  0  0  0  0  0  0
    7.7387  -13.8606   20.9998 H   0  0  0  0  0  0  0  0  0  0  0  0
    5.7176  -11.7791   20.2077 H   0  0  0  0  0  0  0  0  0  0  0  0
    5.5198  -13.3927   19.6909 H   0  0  0  0  0  0  0  0  0  0  0  0
    3.9480  -11.7471   21.9512 H   0  0  0  0  0  0  0  0  0  0  0  0
    3.3728  -13.2372   20.8691 H   0  0  0  0  0  0  0  0  0  0  0  0
    2.8303  -12.8270   23.9257 H   0  0  0  0  0  0  0  0  0  0  0  0
    2.5281  -14.3469   23.1317 H   0  0  0  0  0  0  0  0  0  0  0  0
    5.0827  -15.0252   25.6991 H   0  0  0  0  0  0  0  0  0  0  0  0
    3.8715  -14.2028   26.6499 H   0  0  0  0  0  0  0  0  0  0  0  0
    2.4078  -16.8686   27.0901 H   0  0  0  0  0  0  0  0  0  0  0  0
    3.8342  -16.8576   27.6837 H   0  0  0  0  0  0  0  0  0  0  0  0
    2.5382  -17.9484   24.8788 H   0  0  0  0  0  0  0  0  0  0  0  0
    3.8307  -18.6736   25.3609 H   0  0  0  0  0  0  0  0  0  0  0  0
    3.6826  -15.8961   23.3056 H   0  0  0  0  0  0  0  0  0  0  0  0
    3.8480  -17.0737   23.3345 H   0  0  0  0  0  0  0  0  0  0  0  0
   11.0805  -15.2281   19.2317 H   0  0  0  0  0  0  0  0  0  0  0  0
   13.9625  -16.3129   18.5136 H   0  0  0  0  0  0  0  0  0  0  0  0
   15.3815  -11.9170   16.9636 H   0  0  0  0  0  0  0  0  0  0  0  0
   13.6955  -12.5746   14.4991 H   0  0  0  0  0  0  0  0  0  0  0  0
   13.7022  -11.0880   15.4367 H   0  0  0  0  0  0  0  0  0  0  0  0
   15.2152  -11.6578   13.0918 H   0  0  0  0  0  0  0  0  0  0  0  0
   15.5100  -10.2735   14.1355 H   0  0  0  0  0  0  0  0  0  0  0  0
   17.3071  -11.2680   15.1930 H   0  0  0  0  0  0  0  0  0  0  0  0
   17.3764  -12.3070   13.7627 H   0  0  0  0  0  0  0  0  0  0  0  0
   17.1143  -13.4576   16.1695 H   0  0  0  0  0  0  0  0  0  0  0  0
   16.0790  -14.0361   14.8510 H   0  0  0  0  0  0  0  0  0  0  0  0
   12.4460  -12.6152   16.9461 H   0  0  0  0  0  0  0  0  0  0  0  0
  1  2  2  0
  2  3  1  0
  3  4  1  0
  4  5  1  0
  5  6  1  0
  6  7  1  0
  7  8  1  0
  8  9  1  0
  9 10  1  0
 10 11  1  0
 11 12  1  0
  2 13  1  0
 13 14  1  0
 14 15  1  0
 15 16  2  0
 16 17  1  0
 17 18  1  0
 18 19  1  0
 19 20  1  0
 20 21  1  0
 21 22  1  0
 17 23  1  0
 12  8  1  0
 23 14  2  0
 22 18  1  0
  3 24  1  0
  4 25  1  0
  4 26  1  0
  5 27  1  0
  5 28  1  0
  6 29  1  0
  6 30  1  0
  7 31  1  0
  7 32  1  0
  9 33  1  0
  9 34  1  0
 10 35  1  0
 10 36  1  0
 11 37  1  0
 11 38  1  0
 12 39  1  0
 12 40  1  0
 13 41  1  0
 15 42  1  0
 18 43  1  0
 19 44  1  0
 19 45  1  0
 20 46  1  0
 20 47  1  0
 21 48  1  0
 21 49  1  0
 22 50  1  0
 22 51  1  0
 23 52  1  0
M  END
>  <Energy>  (1075) 
640.53552391992912

>  <compound_id>  (1075) 
8752

>  <target_id>  (1075) 
1

>  <reference_id>  (1075) 
124

>  <inspiration_ids>  (1075) 
[96, 124]

>  <energy_score>  (1075) 
638.4307104978118

>  <distance_score>  (1075) 
14.144095351799642

>  <path>  (1075) 
/opt/xchem-fragalysis-2/maxwin/BulkDock/SCRATCH/511015/C8752-P124/C8752-P124.minimised.mol

>  <scratch_subdir>  (1075) 
/opt/xchem-fragalysis-2/maxwin/BulkDock/SCRATCH/511015/C8752-P124

>  <fragmenstein_runtime>  (1075) 
69.9401228427887

>  <fragmenstein_outcome>  (1075) 
too moved

>  <fragmenstein_mode>  (1075) 
expansion

>  <fragmenstein_error>  (1075) 


$$$$
C8753-P96
     RDKit          3D

 51 53  0  0  0  0  0  0  0  0999 V2000
   -3.4848  -13.1703   28.4173 C   0  0  0  0  0  0  0  0  0  0  0  0
   -2.7387  -12.7794   27.1108 C   0  0  0  0  0  0  0  0  0  0  0  0
   -2.2666  -13.3127   25.5987 C   0  0  0  0  0  0  0  0  0  0  0  0
   -1.6418  -12.2956   23.8880 C   0  0  0  0  0  0  0  0  0  0  0  0
    0.2795  -11.6092   24.0734 N   0  0  0  0  0  0  0  0  0  0  0  0
    1.6974  -11.4307   22.7815 C   0  0  0  0  0  0  0  0  0  0  0  0
    3.3696  -12.0885   23.5863 C   0  0  0  0  0  0  0  0  0  0  0  0
    3.8335  -12.0243   25.0201 C   0  0  0  0  0  0  0  0  0  0  0  0
    5.2051  -12.1876   25.0376 C   0  0  0  0  0  0  0  0  0  0  0  0
    5.5213  -12.4917   23.7523 N   0  0  0  0  0  0  0  0  0  0  0  0
    6.7694  -12.1451   23.0512 C   0  0  0  0  0  0  0  0  0  0  0  0
    8.1122  -12.5373   23.6851 C   0  0  0  0  0  0  0  0  0  0  0  0
    9.1671  -11.7132   22.9233 C   0  0  0  0  0  0  0  0  0  0  0  0
    8.4327  -10.4966   22.3684 C   0  0  0  0  0  0  0  0  0  0  0  0
    6.9977  -10.6264   22.8876 C   0  0  0  0  0  0  0  0  0  0  0  0
    4.3629  -12.9312   23.0855 N   0  0  0  0  0  0  0  0  0  0  0  0
   -2.4485  -15.0998   26.0984 N   0  0  0  0  0  0  0  0  0  0  0  0
   -3.3218  -15.5775   27.2205 C   0  0  0  0  0  0  0  0  0  0  0  0
   -3.2847  -17.1096   27.2736 C   0  0  0  0  0  0  0  0  0  0  0  0
   -1.9756  -17.4313   26.6118 C   0  0  0  0  0  0  0  0  0  0  0  0
   -1.3342  -16.0650   26.3075 C   0  0  0  0  0  0  0  0  0  0  0  0
   -2.8624  -13.7366   29.1174 H   0  0  0  0  0  0  0  0  0  0  0  0
   -4.4707  -13.6155   28.2933 H   0  0  0  0  0  0  0  0  0  0  0  0
   -3.6764  -12.2463   28.9866 H   0  0  0  0  0  0  0  0  0  0  0  0
   -1.7659  -12.7560   27.5821 H   0  0  0  0  0  0  0  0  0  0  0  0
   -3.3733  -11.9142   27.0104 H   0  0  0  0  0  0  0  0  0  0  0  0
   -2.8748  -13.5253   24.6685 H   0  0  0  0  0  0  0  0  0  0  0  0
   -2.4205  -11.5286   23.8237 H   0  0  0  0  0  0  0  0  0  0  0  0
   -1.5081  -13.0234   23.0722 H   0  0  0  0  0  0  0  0  0  0  0  0
    0.0482  -10.6145   24.0169 H   0  0  0  0  0  0  0  0  0  0  0  0
    1.6936  -12.1258   21.9247 H   0  0  0  0  0  0  0  0  0  0  0  0
    1.5949  -10.5079   22.2148 H   0  0  0  0  0  0  0  0  0  0  0  0
    3.2368  -11.7138   25.8676 H   0  0  0  0  0  0  0  0  0  0  0  0
    5.9414  -12.0395   25.8132 H   0  0  0  0  0  0  0  0  0  0  0  0
    6.7231  -12.6435   22.0782 H   0  0  0  0  0  0  0  0  0  0  0  0
    8.3039  -13.6125   23.6097 H   0  0  0  0  0  0  0  0  0  0  0  0
    8.1382  -12.2741   24.7494 H   0  0  0  0  0  0  0  0  0  0  0  0
    9.9915  -11.4269   23.5842 H   0  0  0  0  0  0  0  0  0  0  0  0
    9.5904  -12.3025   22.1021 H   0  0  0  0  0  0  0  0  0  0  0  0
    8.8922   -9.5555   22.6856 H   0  0  0  0  0  0  0  0  0  0  0  0
    8.4429  -10.5229   21.2729 H   0  0  0  0  0  0  0  0  0  0  0  0
    6.2947  -10.1334   22.2150 H   0  0  0  0  0  0  0  0  0  0  0  0
    6.9132  -10.1198   23.8580 H   0  0  0  0  0  0  0  0  0  0  0  0
   -2.8615  -15.3234   28.1708 H   0  0  0  0  0  0  0  0  0  0  0  0
   -4.3651  -15.2817   27.1834 H   0  0  0  0  0  0  0  0  0  0  0  0
   -3.3105  -17.4669   28.3093 H   0  0  0  0  0  0  0  0  0  0  0  0
   -4.1224  -17.5790   26.7519 H   0  0  0  0  0  0  0  0  0  0  0  0
   -2.1531  -17.9868   25.6836 H   0  0  0  0  0  0  0  0  0  0  0  0
   -1.3279  -18.0421   27.2486 H   0  0  0  0  0  0  0  0  0  0  0  0
   -0.7159  -16.2621   25.4425 H   0  0  0  0  0  0  0  0  0  0  0  0
   -0.7043  -15.7585   27.1524 H   0  0  0  0  0  0  0  0  0  0  0  0
  1  2  1  0
  2  3  1  0
  3  4  1  0
  4  5  1  0
  5  6  1  0
  6  7  1  0
  7  8  1  0
  8  9  2  0
  9 10  1  0
 10 11  1  0
 11 12  1  0
 12 13  1  0
 13 14  1  0
 14 15  1  0
 10 16  1  0
  3 17  1  0
 17 18  1  0
 18 19  1  0
 19 20  1  0
 20 21  1  0
 16  7  2  0
 21 17  1  0
 15 11  1  0
  1 22  1  0
  1 23  1  0
  1 24  1  0
  2 25  1  0
  2 26  1  0
  3 27  1  0
  4 28  1  0
  4 29  1  0
  5 30  1  0
  6 31  1  0
  6 32  1  0
  8 33  1  0
  9 34  1  0
 11 35  1  0
 12 36  1  0
 12 37  1  0
 13 38  1  0
 13 39  1  0
 14 40  1  0
 14 41  1  0
 15 42  1  0
 15 43  1  0
 18 44  1  0
 18 45  1  0
 19 46  1  0
 19 47  1  0
 20 48  1  0
 20 49  1  0
 21 50  1  0
 21 51  1  0
M  END
>  <Energy>  (1076) 
551.23145892601076

>  <compound_id>  (1076) 
8753

>  <target_id>  (1076) 
1

>  <reference_id>  (1076) 
96

>  <inspiration_ids>  (1076) 
[96, 124]

>  <energy_score>  (1076) 
436.2801466207774

>  <distance_score>  (1076) 
13.935674145136277

>  <path>  (1076) 
/opt/xchem-fragalysis-2/maxwin/BulkDock/SCRATCH/511015/C8753-P96/C8753-P96.minimised.mol

>  <scratch_subdir>  (1076) 
/opt/xchem-fragalysis-2/maxwin/BulkDock/SCRATCH/511015/C8753-P96

>  <fragmenstein_runtime>  (1076) 
41.536452531814575

>  <fragmenstein_outcome>  (1076) 
too moved

>  <fragmenstein_mode>  (1076) 
expansion

>  <fragmenstein_error>  (1076) 


$$$$
C8753-P124
     RDKit          3D

 51 53  0  0  0  0  0  0  0  0999 V2000
   -5.5068   -4.4216   15.8668 C   0  0  0  0  0  0  0  0  0  0  0  0
   -5.3158   -5.8630   15.3995 C   0  0  0  0  0  0  0  0  0  0  0  0
   -4.7731   -6.8823   16.4579 C   0  0  0  0  0  0  0  0  0  0  0  0
   -3.4735   -6.2033   17.2107 C   0  0  0  0  0  0  0  0  0  0  0  0
   -2.3273   -5.7271   16.2923 N   0  0  0  0  0  0  0  0  0  0  0  0
   -1.0905   -5.2213   17.0077 C   0  0  0  0  0  0  0  0  0  0  0  0
    0.1099   -4.8716   16.0987 C   0  0  0  0  0  0  0  0  0  0  0  0
    0.9937   -5.7874   15.4687 C   0  0  0  0  0  0  0  0  0  0  0  0
    1.9521   -5.0206   14.8497 C   0  0  0  0  0  0  0  0  0  0  0  0
    1.6599   -3.7184   15.1351 N   0  0  0  0  0  0  0  0  0  0  0  0
    2.3932   -2.5264   14.7157 C   0  0  0  0  0  0  0  0  0  0  0  0
    3.7194   -2.3477   15.4412 C   0  0  0  0  0  0  0  0  0  0  0  0
    4.5274   -1.3995   14.5658 C   0  0  0  0  0  0  0  0  0  0  0  0
    4.1466   -1.7724   13.1437 C   0  0  0  0  0  0  0  0  0  0  0  0
    2.7673   -2.4511   13.2243 C   0  0  0  0  0  0  0  0  0  0  0  0
    0.5467   -3.6039   15.9137 N   0  0  0  0  0  0  0  0  0  0  0  0
   -5.8559   -7.6063   17.2223 N   0  0  0  0  0  0  0  0  0  0  0  0
   -6.5986   -8.5789   16.3649 C   0  0  0  0  0  0  0  0  0  0  0  0
   -8.0269   -8.7089   16.9216 C   0  0  0  0  0  0  0  0  0  0  0  0
   -8.0884   -7.7511   18.1016 C   0  0  0  0  0  0  0  0  0  0  0  0
   -6.8995   -6.8112   17.8756 C   0  0  0  0  0  0  0  0  0  0  0  0
   -6.0679   -3.8616   15.1110 H   0  0  0  0  0  0  0  0  0  0  0  0
   -4.5506   -3.9074   15.9946 H   0  0  0  0  0  0  0  0  0  0  0  0
   -6.0506   -4.3472   16.8100 H   0  0  0  0  0  0  0  0  0  0  0  0
   -4.6235   -5.8509   14.5472 H   0  0  0  0  0  0  0  0  0  0  0  0
   -6.2663   -6.2098   14.9806 H   0  0  0  0  0  0  0  0  0  0  0  0
   -4.3150   -7.6864   15.8683 H   0  0  0  0  0  0  0  0  0  0  0  0
   -3.8106   -5.3597   17.8226 H   0  0  0  0  0  0  0  0  0  0  0  0
   -3.0697   -6.9627   17.8884 H   0  0  0  0  0  0  0  0  0  0  0  0
   -2.6684   -4.9428   15.7328 H   0  0  0  0  0  0  0  0  0  0  0  0
   -0.7511   -6.0130   17.6817 H   0  0  0  0  0  0  0  0  0  0  0  0
   -1.3617   -4.3425   17.6030 H   0  0  0  0  0  0  0  0  0  0  0  0
    0.9243   -6.8667   15.4637 H   0  0  0  0  0  0  0  0  0  0  0  0
    2.7815   -5.3049   14.2272 H   0  0  0  0  0  0  0  0  0  0  0  0
    1.7463   -1.6684   14.9454 H   0  0  0  0  0  0  0  0  0  0  0  0
    3.5721   -1.9498   16.4507 H   0  0  0  0  0  0  0  0  0  0  0  0
    4.2189   -3.3119   15.5295 H   0  0  0  0  0  0  0  0  0  0  0  0
    5.6054   -1.4714   14.7328 H   0  0  0  0  0  0  0  0  0  0  0  0
    4.2252   -0.3652   14.7693 H   0  0  0  0  0  0  0  0  0  0  0  0
    4.8797   -2.4555   12.7073 H   0  0  0  0  0  0  0  0  0  0  0  0
    4.1169   -0.8884   12.4979 H   0  0  0  0  0  0  0  0  0  0  0  0
    2.0182   -1.8679   12.6761 H   0  0  0  0  0  0  0  0  0  0  0  0
    2.8095   -3.4328   12.7414 H   0  0  0  0  0  0  0  0  0  0  0  0
   -6.0828   -9.5447   16.3454 H   0  0  0  0  0  0  0  0  0  0  0  0
   -6.6694   -8.2507   15.3225 H   0  0  0  0  0  0  0  0  0  0  0  0
   -8.7449   -8.3924   16.1553 H   0  0  0  0  0  0  0  0  0  0  0  0
   -8.2875   -9.7340   17.2027 H   0  0  0  0  0  0  0  0  0  0  0  0
   -9.0338   -7.1975   18.1113 H   0  0  0  0  0  0  0  0  0  0  0  0
   -8.0255   -8.2716   19.0589 H   0  0  0  0  0  0  0  0  0  0  0  0
   -6.5504   -6.3561   18.8065 H   0  0  0  0  0  0  0  0  0  0  0  0
   -7.2628   -6.0126   17.2236 H   0  0  0  0  0  0  0  0  0  0  0  0
  1  2  1  0
  2  3  1  0
  3  4  1  0
  4  5  1  0
  5  6  1  0
  6  7  1  0
  7  8  1  0
  8  9  2  0
  9 10  1  0
 10 11  1  0
 11 12  1  0
 12 13  1  0
 13 14  1  0
 14 15  1  0
 10 16  1  0
  3 17  1  0
 17 18  1  0
 18 19  1  0
 19 20  1  0
 20 21  1  0
 16  7  2  0
 21 17  1  0
 15 11  1  0
  1 22  1  0
  1 23  1  0
  1 24  1  0
  2 25  1  0
  2 26  1  0
  3 27  1  0
  4 28  1  0
  4 29  1  0
  5 30  1  0
  6 31  1  0
  6 32  1  0
  8 33  1  0
  9 34  1  0
 11 35  1  0
 12 36  1  0
 12 37  1  0
 13 38  1  0
 13 39  1  0
 14 40  1  0
 14 41  1  0
 15 42  1  0
 15 43  1  0
 18 44  1  0
 18 45  1  0
 19 46  1  0
 19 47  1  0
 20 48  1  0
 20 49  1  0
 21 50  1  0
 21 51  1  0
M  END
>  <Energy>  (1077) 
80.262188151158966

>  <compound_id>  (1077) 
8753

>  <target_id>  (1077) 
1

>  <reference_id>  (1077) 
124

>  <inspiration_ids>  (1077) 
[96, 124]

>  <energy_score>  (1077) 
-34.6891241540784

>  <distance_score>  (1077) 
15.86393195140911

>  <path>  (1077) 
/opt/xchem-fragalysis-2/maxwin/BulkDock/SCRATCH/511015/C8753-P124/C8753-P124.minimised.mol

>  <scratch_subdir>  (1077) 
/opt/xchem-fragalysis-2/maxwin/BulkDock/SCRATCH/511015/C8753-P124

>  <fragmenstein_runtime>  (1077) 
68.9233922958374

>  <fragmenstein_outcome>  (1077) 
too moved

>  <fragmenstein_mode>  (1077) 
expansion

>  <fragmenstein_error>  (1077) 


$$$$
C8754-P96
     RDKit          3D

 44 46  0  0  0  0  0  0  0  0999 V2000
    0.7396  -14.0019   27.2017 O   0  0  0  0  0  0  0  0  0  0  0  0
    1.8245  -14.4540   26.9322 C   0  0  0  0  0  0  0  0  0  0  0  0
    2.0697  -15.8629   27.4621 C   0  0  0  0  0  0  0  0  0  0  0  0
    0.8497  -16.6861   27.8270 N   0  0  0  0  0  0  0  0  0  0  0  0
   -0.3703  -16.6888   27.0159 C   0  0  0  0  0  0  0  0  0  0  0  0
   -1.2315  -17.7236   27.7361 C   0  0  0  0  0  0  0  0  0  0  0  0
   -0.8923  -17.5063   29.2062 C   0  0  0  0  0  0  0  0  0  0  0  0
    0.3702  -16.6267   29.2057 C   0  0  0  0  0  0  0  0  0  0  0  0
    3.0958  -13.7567   26.1974 N   0  0  0  0  0  0  0  0  0  0  0  0
    3.3077  -12.0306   25.4898 C   0  0  0  0  0  0  0  0  0  0  0  0
    4.5714  -10.5450   25.3839 C   0  0  0  0  0  0  0  0  0  0  0  0
    5.4600  -10.2360   24.2053 C   0  0  0  0  0  0  0  0  0  0  0  0
    6.2165   -9.1259   24.3792 C   0  0  0  0  0  0  0  0  0  0  0  0
    5.6453   -8.5285   25.4464 N   0  0  0  0  0  0  0  0  0  0  0  0
    5.9575   -7.1222   25.7618 C   0  0  0  0  0  0  0  0  0  0  0  0
    7.4819   -6.8404   25.8689 C   0  0  0  0  0  0  0  0  0  0  0  0
    7.8884   -6.0865   24.6006 C   0  0  0  0  0  0  0  0  0  0  0  0
    6.6764   -5.2282   24.3134 C   0  0  0  0  0  0  0  0  0  0  0  0
    5.4897   -6.1263   24.6643 C   0  0  0  0  0  0  0  0  0  0  0  0
    4.6425   -9.3134   26.0768 N   0  0  0  0  0  0  0  0  0  0  0  0
    2.6299  -15.7228   28.3977 H   0  0  0  0  0  0  0  0  0  0  0  0
    2.8045  -16.3414   26.8259 H   0  0  0  0  0  0  0  0  0  0  0  0
   -0.8989  -15.7337   27.0603 H   0  0  0  0  0  0  0  0  0  0  0  0
   -0.2210  -16.9621   25.9715 H   0  0  0  0  0  0  0  0  0  0  0  0
   -0.9463  -18.7378   27.4318 H   0  0  0  0  0  0  0  0  0  0  0  0
   -2.2985  -17.5918   27.5333 H   0  0  0  0  0  0  0  0  0  0  0  0
   -0.7124  -18.4661   29.7022 H   0  0  0  0  0  0  0  0  0  0  0  0
   -1.7101  -16.9997   29.7298 H   0  0  0  0  0  0  0  0  0  0  0  0
    0.1155  -15.5998   29.4935 H   0  0  0  0  0  0  0  0  0  0  0  0
    1.1123  -17.0122   29.9119 H   0  0  0  0  0  0  0  0  0  0  0  0
    3.8521  -14.3699   26.2036 H   0  0  0  0  0  0  0  0  0  0  0  0
    2.3042  -11.6340   25.4600 H   0  0  0  0  0  0  0  0  0  0  0  0
    3.5200  -12.3473   24.4524 H   0  0  0  0  0  0  0  0  0  0  0  0
    5.4425  -10.6679   23.2541 H   0  0  0  0  0  0  0  0  0  0  0  0
    6.9402   -8.6527   23.7347 H   0  0  0  0  0  0  0  0  0  0  0  0
    5.4668   -6.9160   26.7198 H   0  0  0  0  0  0  0  0  0  0  0  0
    8.0868   -7.7401   26.0218 H   0  0  0  0  0  0  0  0  0  0  0  0
    7.6528   -6.1862   26.7338 H   0  0  0  0  0  0  0  0  0  0  0  0
    8.7918   -5.4887   24.7531 H   0  0  0  0  0  0  0  0  0  0  0  0
    8.0787   -6.7762   23.7730 H   0  0  0  0  0  0  0  0  0  0  0  0
    6.6426   -4.8824   23.2761 H   0  0  0  0  0  0  0  0  0  0  0  0
    6.6770   -4.3459   24.9645 H   0  0  0  0  0  0  0  0  0  0  0  0
    4.6464   -5.5258   25.0214 H   0  0  0  0  0  0  0  0  0  0  0  0
    5.1597   -6.6364   23.7576 H   0  0  0  0  0  0  0  0  0  0  0  0
  1  2  2  0
  2  3  1  0
  3  4  1  0
  4  5  1  0
  5  6  1  0
  6  7  1  0
  7  8  1  0
  2  9  1  0
  9 10  1  0
 10 11  1  0
 11 12  1  0
 12 13  2  0
 13 14  1  0
 14 15  1  0
 15 16  1  0
 16 17  1  0
 17 18  1  0
 18 19  1  0
 14 20  1  0
  8  4  1  0
 20 11  2  0
 19 15  1  0
  3 21  1  0
  3 22  1  0
  5 23  1  0
  5 24  1  0
  6 25  1  0
  6 26  1  0
  7 27  1  0
  7 28  1  0
  8 29  1  0
  8 30  1  0
  9 31  1  0
 10 32  1  0
 10 33  1  0
 12 34  1  0
 13 35  1  0
 15 36  1  0
 16 37  1  0
 16 38  1  0
 17 39  1  0
 17 40  1  0
 18 41  1  0
 18 42  1  0
 19 43  1  0
 19 44  1  0
M  END
>  <Energy>  (1078) 
239.37595471510588

>  <compound_id>  (1078) 
8754

>  <target_id>  (1078) 
1

>  <reference_id>  (1078) 
96

>  <inspiration_ids>  (1078) 
[96, 124]

>  <energy_score>  (1078) 
160.340893257846

>  <distance_score>  (1078) 
14.142930660564266

>  <path>  (1078) 
/opt/xchem-fragalysis-2/maxwin/BulkDock/SCRATCH/511015/C8754-P96/C8754-P96.minimised.mol

>  <scratch_subdir>  (1078) 
/opt/xchem-fragalysis-2/maxwin/BulkDock/SCRATCH/511015/C8754-P96

>  <fragmenstein_runtime>  (1078) 
28.8108012676239

>  <fragmenstein_outcome>  (1078) 
too moved

>  <fragmenstein_mode>  (1078) 
expansion

>  <fragmenstein_error>  (1078) 


$$$$
C8754-P124
     RDKit          3D

 44 46  0  0  0  0  0  0  0  0999 V2000
    1.6813  -10.8554   26.4838 O   0  0  0  0  0  0  0  0  0  0  0  0
    1.6634  -11.6807   25.4512 C   0  0  0  0  0  0  0  0  0  0  0  0
    0.7862  -13.1205   25.9304 C   0  0  0  0  0  0  0  0  0  0  0  0
   -0.3677  -12.8546   27.0341 N   0  0  0  0  0  0  0  0  0  0  0  0
   -0.1604  -13.5588   28.3184 C   0  0  0  0  0  0  0  0  0  0  0  0
   -1.4759  -14.2266   28.7331 C   0  0  0  0  0  0  0  0  0  0  0  0
   -2.5222  -13.4910   27.9401 C   0  0  0  0  0  0  0  0  0  0  0  0
   -1.7878  -13.0753   26.6700 C   0  0  0  0  0  0  0  0  0  0  0  0
    2.7180  -11.2965   23.7798 N   0  0  0  0  0  0  0  0  0  0  0  0
    4.2001   -9.6944   23.3033 C   0  0  0  0  0  0  0  0  0  0  0  0
    4.9429   -7.5685   23.2454 C   0  0  0  0  0  0  0  0  0  0  0  0
    6.1283   -6.5970   24.2157 C   0  0  0  0  0  0  0  0  0  0  0  0
    7.2761   -5.5592   23.6778 C   0  0  0  0  0  0  0  0  0  0  0  0
    7.5424   -5.3980   21.9956 N   0  0  0  0  0  0  0  0  0  0  0  0
    8.9808   -4.7690   20.5468 C   0  0  0  0  0  0  0  0  0  0  0  0
   11.1697   -4.9179   20.6146 C   0  0  0  0  0  0  0  0  0  0  0  0
   12.3347   -4.7724   19.1383 C   0  0  0  0  0  0  0  0  0  0  0  0
   11.2235   -4.9661   17.8543 C   0  0  0  0  0  0  0  0  0  0  0  0
    9.8380   -5.6233   19.2693 C   0  0  0  0  0  0  0  0  0  0  0  0
    6.3999   -6.9280   22.2601 N   0  0  0  0  0  0  0  0  0  0  0  0
    1.5327  -13.5558   26.6039 H   0  0  0  0  0  0  0  0  0  0  0  0
    0.6922  -13.8986   25.2159 H   0  0  0  0  0  0  0  0  0  0  0  0
    0.1052  -12.7990   29.0632 H   0  0  0  0  0  0  0  0  0  0  0  0
    0.6568  -14.2857   28.3211 H   0  0  0  0  0  0  0  0  0  0  0  0
   -1.6505  -14.1505   29.8109 H   0  0  0  0  0  0  0  0  0  0  0  0
   -1.4875  -15.2878   28.4716 H   0  0  0  0  0  0  0  0  0  0  0  0
   -3.4032  -14.1057   27.7341 H   0  0  0  0  0  0  0  0  0  0  0  0
   -2.8476  -12.6003   28.4913 H   0  0  0  0  0  0  0  0  0  0  0  0
   -1.9462  -13.8419   25.9122 H   0  0  0  0  0  0  0  0  0  0  0  0
   -2.2541  -12.1592   26.3041 H   0  0  0  0  0  0  0  0  0  0  0  0
    2.6337  -12.0922   23.1477 H   0  0  0  0  0  0  0  0  0  0  0  0
    4.7316  -10.4131   22.5638 H   0  0  0  0  0  0  0  0  0  0  0  0
    5.1598   -9.9659   23.8720 H   0  0  0  0  0  0  0  0  0  0  0  0
    6.0475   -6.7555   25.2842 H   0  0  0  0  0  0  0  0  0  0  0  0
    7.9517   -4.9369   24.2397 H   0  0  0  0  0  0  0  0  0  0  0  0
    8.6226   -3.7951   20.4867 H   0  0  0  0  0  0  0  0  0  0  0  0
   11.7901   -4.2744   21.3075 H   0  0  0  0  0  0  0  0  0  0  0  0
   11.6694   -5.9084   20.7526 H   0  0  0  0  0  0  0  0  0  0  0  0
   12.8231   -3.7990   19.1347 H   0  0  0  0  0  0  0  0  0  0  0  0
   13.0848   -5.5265   19.3100 H   0  0  0  0  0  0  0  0  0  0  0  0
   11.1757   -4.0133   17.2831 H   0  0  0  0  0  0  0  0  0  0  0  0
   11.4896   -5.4902   16.8883 H   0  0  0  0  0  0  0  0  0  0  0  0
   10.0915   -6.1322   20.1587 H   0  0  0  0  0  0  0  0  0  0  0  0
    9.3399   -6.4187   19.0351 H   0  0  0  0  0  0  0  0  0  0  0  0
  1  2  2  0
  2  3  1  0
  3  4  1  0
  4  5  1  0
  5  6  1  0
  6  7  1  0
  7  8  1  0
  2  9  1  0
  9 10  1  0
 10 11  1  0
 11 12  1  0
 12 13  2  0
 13 14  1  0
 14 15  1  0
 15 16  1  0
 16 17  1  0
 17 18  1  0
 18 19  1  0
 14 20  1  0
  8  4  1  0
 20 11  2  0
 19 15  1  0
  3 21  1  0
  3 22  1  0
  5 23  1  0
  5 24  1  0
  6 25  1  0
  6 26  1  0
  7 27  1  0
  7 28  1  0
  8 29  1  0
  8 30  1  0
  9 31  1  0
 10 32  1  0
 10 33  1  0
 12 34  1  0
 13 35  1  0
 15 36  1  0
 16 37  1  0
 16 38  1  0
 17 39  1  0
 17 40  1  0
 18 41  1  0
 18 42  1  0
 19 43  1  0
 19 44  1  0
M  END
>  <Energy>  (1079) 
1828.6433197404042

>  <compound_id>  (1079) 
8754

>  <target_id>  (1079) 
1

>  <reference_id>  (1079) 
124

>  <inspiration_ids>  (1079) 
[96, 124]

>  <energy_score>  (1079) 
1749.6082582831837

>  <distance_score>  (1079) 
12.46512903771404

>  <path>  (1079) 
/opt/xchem-fragalysis-2/maxwin/BulkDock/SCRATCH/511015/C8754-P124/C8754-P124.minimised.mol

>  <scratch_subdir>  (1079) 
/opt/xchem-fragalysis-2/maxwin/BulkDock/SCRATCH/511015/C8754-P124

>  <fragmenstein_runtime>  (1079) 
43.385743141174316

>  <fragmenstein_outcome>  (1079) 
too moved

>  <fragmenstein_mode>  (1079) 
expansion

>  <fragmenstein_error>  (1079) 


$$$$
C8755-P96
     RDKit          3D

 40 42  0  0  0  0  0  0  0  0999 V2000
   -0.7026  -13.0055   21.0068 O   0  0  0  0  0  0  0  0  0  0  0  0
   -0.4767  -12.5733   22.0781 C   0  0  0  0  0  0  0  0  0  0  0  0
    1.0837  -11.3901   22.1045 N   0  0  0  0  0  0  0  0  0  0  0  0
    2.2400  -10.8228   20.7729 C   0  0  0  0  0  0  0  0  0  0  0  0
    2.6252  -11.5965   19.4604 C   0  0  0  0  0  0  0  0  0  0  0  0
    3.7004  -11.1544   18.5586 C   0  0  0  0  0  0  0  0  0  0  0  0
    3.9870   -9.9024   18.8269 N   0  0  0  0  0  0  0  0  0  0  0  0
    3.1120   -9.4573   19.9928 N   0  0  0  0  0  0  0  0  0  0  0  0
    3.0970   -7.9659   19.7721 C   0  0  0  0  0  0  0  0  0  0  0  0
    2.0238   -6.9287   19.3259 C   0  0  0  0  0  0  0  0  0  0  0  0
    2.9086   -5.7340   18.8904 C   0  0  0  0  0  0  0  0  0  0  0  0
    4.0228   -5.6987   19.9284 C   0  0  0  0  0  0  0  0  0  0  0  0
    4.3403   -7.1643   20.2547 C   0  0  0  0  0  0  0  0  0  0  0  0
   -1.8233  -13.1143   23.2193 C   0  0  0  0  0  0  0  0  0  0  0  0
   -2.0527  -14.2094   23.0258 O   0  0  0  0  0  0  0  0  0  0  0  0
   -2.6981  -12.2651   24.2315 N   0  0  0  0  0  0  0  0  0  0  0  0
   -3.8127  -12.5759   24.8506 C   0  0  0  0  0  0  0  0  0  0  0  0
   -5.1481  -13.2902   23.9686 C   0  0  0  0  0  0  0  0  0  0  0  0
   -5.2479  -13.9295   25.2465 C   0  0  0  0  0  0  0  0  0  0  0  0
   -4.1526  -12.7568   25.5245 C   0  0  0  0  0  0  0  0  0  0  0  0
    1.1604  -10.9913   23.0343 H   0  0  0  0  0  0  0  0  0  0  0  0
    2.2215  -12.5741   19.3293 H   0  0  0  0  0  0  0  0  0  0  0  0
    4.1406  -11.6625   17.7104 H   0  0  0  0  0  0  0  0  0  0  0  0
    3.4215   -8.0206   18.7135 H   0  0  0  0  0  0  0  0  0  0  0  0
    1.4070   -7.2732   18.4899 H   0  0  0  0  0  0  0  0  0  0  0  0
    1.3514   -6.5682   20.1022 H   0  0  0  0  0  0  0  0  0  0  0  0
    3.3228   -5.9089   17.8901 H   0  0  0  0  0  0  0  0  0  0  0  0
    2.3400   -4.7997   18.8629 H   0  0  0  0  0  0  0  0  0  0  0  0
    3.6533   -5.2002   20.8331 H   0  0  0  0  0  0  0  0  0  0  0  0
    4.8715   -5.1150   19.5858 H   0  0  0  0  0  0  0  0  0  0  0  0
    4.5947   -7.2602   21.3061 H   0  0  0  0  0  0  0  0  0  0  0  0
    5.1998   -7.5619   19.7234 H   0  0  0  0  0  0  0  0  0  0  0  0
   -4.1538  -11.5880   24.1878 H   0  0  0  0  0  0  0  0  0  0  0  0
   -3.3058  -13.7385   24.5118 H   0  0  0  0  0  0  0  0  0  0  0  0
   -4.8522  -13.9252   23.1311 H   0  0  0  0  0  0  0  0  0  0  0  0
   -5.9552  -12.5777   23.7668 H   0  0  0  0  0  0  0  0  0  0  0  0
   -4.8368  -14.9402   25.3221 H   0  0  0  0  0  0  0  0  0  0  0  0
   -6.1695  -13.7819   25.8112 H   0  0  0  0  0  0  0  0  0  0  0  0
   -4.7329  -11.8069   26.1262 H   0  0  0  0  0  0  0  0  0  0  0  0
   -3.5616  -13.1791   26.5209 H   0  0  0  0  0  0  0  0  0  0  0  0
  1  2  2  0
  2  3  1  0
  3  4  1  0
  4  5  2  0
  5  6  1  0
  6  7  2  0
  7  8  1  0
  8  9  1  0
  9 10  1  0
 10 11  1  0
 11 12  1  0
 12 13  1  0
  2 14  1  0
 14 15  2  0
 14 16  1  0
 16 17  1  0
 17 18  1  0
 18 19  1  0
 19 20  1  0
  8  4  1  0
 13  9  1  0
 20 16  1  0
  3 21  1  0
  5 22  1  0
  6 23  1  0
  9 24  1  0
 10 25  1  0
 10 26  1  0
 11 27  1  0
 11 28  1  0
 12 29  1  0
 12 30  1  0
 13 31  1  0
 13 32  1  0
 17 33  1  0
 17 34  1  0
 18 35  1  0
 18 36  1  0
 19 37  1  0
 19 38  1  0
 20 39  1  0
 20 40  1  0
M  END
>  <Energy>  (1080) 
1343.232577388703

>  <compound_id>  (1080) 
8755

>  <target_id>  (1080) 
1

>  <reference_id>  (1080) 
96

>  <inspiration_ids>  (1080) 
[96, 124]

>  <energy_score>  (1080) 
1238.6873577986382

>  <distance_score>  (1080) 
13.668121755932138

>  <path>  (1080) 
/opt/xchem-fragalysis-2/maxwin/BulkDock/SCRATCH/511015/C8755-P96/C8755-P96.minimised.mol

>  <scratch_subdir>  (1080) 
/opt/xchem-fragalysis-2/maxwin/BulkDock/SCRATCH/511015/C8755-P96

>  <fragmenstein_runtime>  (1080) 
26.21308398246765

>  <fragmenstein_outcome>  (1080) 
too moved

>  <fragmenstein_mode>  (1080) 
expansion

>  <fragmenstein_error>  (1080) 


$$$$
C8755-P124
     RDKit          3D

 40 42  0  0  0  0  0  0  0  0999 V2000
   -1.3742   -7.0437   18.4275 O   0  0  0  0  0  0  0  0  0  0  0  0
   -0.6940   -7.8365   17.8453 C   0  0  0  0  0  0  0  0  0  0  0  0
    0.6962   -7.7811   17.4542 N   0  0  0  0  0  0  0  0  0  0  0  0
    1.6228   -6.7659   17.5552 C   0  0  0  0  0  0  0  0  0  0  0  0
    1.5098   -5.4848   18.0446 C   0  0  0  0  0  0  0  0  0  0  0  0
    2.7664   -4.8885   17.8389 C   0  0  0  0  0  0  0  0  0  0  0  0
    3.6400   -5.7215   17.2753 N   0  0  0  0  0  0  0  0  0  0  0  0
    2.9308   -6.8646   17.1088 N   0  0  0  0  0  0  0  0  0  0  0  0
    3.5242   -8.0218   16.4705 C   0  0  0  0  0  0  0  0  0  0  0  0
    3.1426   -8.1564   14.9984 C   0  0  0  0  0  0  0  0  0  0  0  0
    4.1876   -9.1114   14.4458 C   0  0  0  0  0  0  0  0  0  0  0  0
    5.4633   -8.7735   15.1878 C   0  0  0  0  0  0  0  0  0  0  0  0
    5.0440   -8.1029   16.4971 C   0  0  0  0  0  0  0  0  0  0  0  0
   -1.3153   -9.1879   17.2903 C   0  0  0  0  0  0  0  0  0  0  0  0
   -0.7835   -9.6823   16.3928 O   0  0  0  0  0  0  0  0  0  0  0  0
   -2.6126   -9.5823   18.1301 N   0  0  0  0  0  0  0  0  0  0  0  0
   -3.5204  -11.2518   17.8699 C   0  0  0  0  0  0  0  0  0  0  0  0
   -3.6678  -12.1870   19.1430 C   0  0  0  0  0  0  0  0  0  0  0  0
   -4.2156  -10.9401   19.5596 C   0  0  0  0  0  0  0  0  0  0  0  0
   -3.5831  -10.5122   18.0387 C   0  0  0  0  0  0  0  0  0  0  0  0
    0.9614   -8.6733   17.0459 H   0  0  0  0  0  0  0  0  0  0  0  0
    0.6248   -5.0396   18.4773 H   0  0  0  0  0  0  0  0  0  0  0  0
    3.0717   -3.8797   18.0803 H   0  0  0  0  0  0  0  0  0  0  0  0
    3.1442   -8.8989   17.0114 H   0  0  0  0  0  0  0  0  0  0  0  0
    3.1778   -7.1907   14.4863 H   0  0  0  0  0  0  0  0  0  0  0  0
    2.1298   -8.5520   14.8675 H   0  0  0  0  0  0  0  0  0  0  0  0
    4.2981   -9.0241   13.3609 H   0  0  0  0  0  0  0  0  0  0  0  0
    3.8944  -10.1447   14.6679 H   0  0  0  0  0  0  0  0  0  0  0  0
    6.0561   -8.0886   14.5816 H   0  0  0  0  0  0  0  0  0  0  0  0
    6.0631   -9.6726   15.3606 H   0  0  0  0  0  0  0  0  0  0  0  0
    5.5220   -7.1255   16.5923 H   0  0  0  0  0  0  0  0  0  0  0  0
    5.3457   -8.6986   17.3654 H   0  0  0  0  0  0  0  0  0  0  0  0
   -2.5132  -11.8485   17.4604 H   0  0  0  0  0  0  0  0  0  0  0  0
   -4.0484  -11.6974   16.8126 H   0  0  0  0  0  0  0  0  0  0  0  0
   -4.3675  -13.0095   18.9915 H   0  0  0  0  0  0  0  0  0  0  0  0
   -2.7145  -12.4642   19.5950 H   0  0  0  0  0  0  0  0  0  0  0  0
   -3.7162  -10.4329   20.3906 H   0  0  0  0  0  0  0  0  0  0  0  0
   -5.3115  -10.9184   19.5981 H   0  0  0  0  0  0  0  0  0  0  0  0
   -4.2651   -9.5659   18.3900 H   0  0  0  0  0  0  0  0  0  0  0  0
   -4.3230   -9.9888   17.0471 H   0  0  0  0  0  0  0  0  0  0  0  0
  1  2  2  0
  2  3  1  0
  3  4  1  0
  4  5  2  0
  5  6  1  0
  6  7  2  0
  7  8  1  0
  8  9  1  0
  9 10  1  0
 10 11  1  0
 11 12  1  0
 12 13  1  0
  2 14  1  0
 14 15  2  0
 14 16  1  0
 16 17  1  0
 17 18  1  0
 18 19  1  0
 19 20  1  0
  8  4  1  0
 13  9  1  0
 20 16  1  0
  3 21  1  0
  5 22  1  0
  6 23  1  0
  9 24  1  0
 10 25  1  0
 10 26  1  0
 11 27  1  0
 11 28  1  0
 12 29  1  0
 12 30  1  0
 13 31  1  0
 13 32  1  0
 17 33  1  0
 17 34  1  0
 18 35  1  0
 18 36  1  0
 19 37  1  0
 19 38  1  0
 20 39  1  0
 20 40  1  0
M  END
>  <Energy>  (1081) 
807.1416280150969

>  <compound_id>  (1081) 
8755

>  <target_id>  (1081) 
1

>  <reference_id>  (1081) 
124

>  <inspiration_ids>  (1081) 
[96, 124]

>  <energy_score>  (1081) 
702.5964084250357

>  <distance_score>  (1081) 
14.900290477525633

>  <path>  (1081) 
/opt/xchem-fragalysis-2/maxwin/BulkDock/SCRATCH/511015/C8755-P124/C8755-P124.minimised.mol

>  <scratch_subdir>  (1081) 
/opt/xchem-fragalysis-2/maxwin/BulkDock/SCRATCH/511015/C8755-P124

>  <fragmenstein_runtime>  (1081) 
31.76750946044922

>  <fragmenstein_outcome>  (1081) 
too moved

>  <fragmenstein_mode>  (1081) 
expansion

>  <fragmenstein_error>  (1081) 


$$$$
C8756-P96
     RDKit          3D

 48 50  0  0  0  0  0  0  0  0999 V2000
   -1.1401  -11.2320   25.0295 C   0  0  0  0  0  0  0  0  0  0  0  0
   -1.6315  -12.2934   23.6512 C   0  0  0  0  0  0  0  0  0  0  0  0
   -3.0522  -13.2614   24.3734 C   0  0  0  0  0  0  0  0  0  0  0  0
   -3.7609  -14.5757   24.1228 N   0  0  0  0  0  0  0  0  0  0  0  0
   -5.2372  -14.4397   24.1595 C   0  0  0  0  0  0  0  0  0  0  0  0
   -5.7563  -15.8685   24.2723 C   0  0  0  0  0  0  0  0  0  0  0  0
   -4.6907  -16.5939   25.0716 C   0  0  0  0  0  0  0  0  0  0  0  0
   -3.5611  -15.5736   25.2205 C   0  0  0  0  0  0  0  0  0  0  0  0
   -0.0491  -12.5812   22.3179 N   0  0  0  0  0  0  0  0  0  0  0  0
    1.9957  -11.7485   21.6571 S   0  0  0  0  0  0  0  0  0  0  0  0
    1.5930  -10.4204   21.9375 O   0  0  0  0  0  0  0  0  0  0  0  0
    2.9895  -12.6241   22.2133 O   0  0  0  0  0  0  0  0  0  0  0  0
    2.7570  -11.1729   19.6196 C   0  0  0  0  0  0  0  0  0  0  0  0
    3.1890   -9.8389   19.8595 C   0  0  0  0  0  0  0  0  0  0  0  0
    4.3700   -9.3992   19.4053 N   0  0  0  0  0  0  0  0  0  0  0  0
    4.9898  -10.2375   18.6017 N   0  0  0  0  0  0  0  0  0  0  0  0
    6.5194   -9.9759   18.5198 C   0  0  0  0  0  0  0  0  0  0  0  0
    7.1129   -8.9908   17.4112 C   0  0  0  0  0  0  0  0  0  0  0  0
    8.4869   -8.5003   17.8662 C   0  0  0  0  0  0  0  0  0  0  0  0
    8.6597   -8.8783   19.3134 C   0  0  0  0  0  0  0  0  0  0  0  0
    7.3283   -9.4195   19.8189 C   0  0  0  0  0  0  0  0  0  0  0  0
    4.0235  -11.3423   18.5772 C   0  0  0  0  0  0  0  0  0  0  0  0
   -0.1203  -10.8605   24.9022 H   0  0  0  0  0  0  0  0  0  0  0  0
   -1.2235  -11.7717   25.9812 H   0  0  0  0  0  0  0  0  0  0  0  0
   -1.8435  -10.3965   25.0990 H   0  0  0  0  0  0  0  0  0  0  0  0
   -2.3669  -11.5373   23.4719 H   0  0  0  0  0  0  0  0  0  0  0  0
   -2.8910  -13.1732   25.4605 H   0  0  0  0  0  0  0  0  0  0  0  0
   -3.8546  -12.5124   24.2457 H   0  0  0  0  0  0  0  0  0  0  0  0
   -5.5569  -13.8666   25.0407 H   0  0  0  0  0  0  0  0  0  0  0  0
   -5.6329  -13.9414   23.2730 H   0  0  0  0  0  0  0  0  0  0  0  0
   -6.7336  -15.9012   24.7614 H   0  0  0  0  0  0  0  0  0  0  0  0
   -5.8545  -16.3226   23.2794 H   0  0  0  0  0  0  0  0  0  0  0  0
   -4.3495  -17.4820   24.5287 H   0  0  0  0  0  0  0  0  0  0  0  0
   -5.0650  -16.9155   26.0490 H   0  0  0  0  0  0  0  0  0  0  0  0
   -2.5948  -16.0814   25.1656 H   0  0  0  0  0  0  0  0  0  0  0  0
   -3.6410  -15.0969   26.2062 H   0  0  0  0  0  0  0  0  0  0  0  0
    0.2310  -11.7484   22.9130 H   0  0  0  0  0  0  0  0  0  0  0  0
    2.5921   -9.1838   20.4232 H   0  0  0  0  0  0  0  0  0  0  0  0
    6.9836  -10.9460   18.4638 H   0  0  0  0  0  0  0  0  0  0  0  0
    6.4597   -8.1553   17.1624 H   0  0  0  0  0  0  0  0  0  0  0  0
    7.3242   -9.3970   16.4333 H   0  0  0  0  0  0  0  0  0  0  0  0
    9.2771   -8.9741   17.2702 H   0  0  0  0  0  0  0  0  0  0  0  0
    8.5957   -7.4258   17.7065 H   0  0  0  0  0  0  0  0  0  0  0  0
    9.0112   -8.0392   19.9216 H   0  0  0  0  0  0  0  0  0  0  0  0
    9.4260   -9.6603   19.3903 H   0  0  0  0  0  0  0  0  0  0  0  0
    7.6446  -10.1571   20.5563 H   0  0  0  0  0  0  0  0  0  0  0  0
    6.7895   -8.7004   20.4381 H   0  0  0  0  0  0  0  0  0  0  0  0
    4.0734  -11.9602   17.6990 H   0  0  0  0  0  0  0  0  0  0  0  0
  1  2  1  0
  2  3  1  0
  3  4  1  0
  4  5  1  0
  5  6  1  0
  6  7  1  0
  7  8  1  0
  2  9  1  0
  9 10  1  0
 10 11  2  0
 10 12  2  0
 10 13  1  0
 13 14  1  0
 14 15  2  0
 15 16  1  0
 16 17  1  0
 17 18  1  0
 18 19  1  0
 19 20  1  0
 20 21  1  0
 16 22  1  0
  8  4  1  0
 22 13  2  0
 21 17  1  0
  1 23  1  0
  1 24  1  0
  1 25  1  0
  2 26  1  0
  3 27  1  0
  3 28  1  0
  5 29  1  0
  5 30  1  0
  6 31  1  0
  6 32  1  0
  7 33  1  0
  7 34  1  0
  8 35  1  0
  8 36  1  0
  9 37  1  0
 14 38  1  0
 17 39  1  0
 18 40  1  0
 18 41  1  0
 19 42  1  0
 19 43  1  0
 20 44  1  0
 20 45  1  0
 21 46  1  0
 21 47  1  0
 22 48  1  0
M  END
>  <Energy>  (1082) 
539.91062977508659

>  <compound_id>  (1082) 
8756

>  <target_id>  (1082) 
1

>  <reference_id>  (1082) 
96

>  <inspiration_ids>  (1082) 
[96, 124]

>  <energy_score>  (1082) 
505.4768151833344

>  <distance_score>  (1082) 
13.579520069617537

>  <path>  (1082) 
/opt/xchem-fragalysis-2/maxwin/BulkDock/SCRATCH/511015/C8756-P96/C8756-P96.minimised.mol

>  <scratch_subdir>  (1082) 
/opt/xchem-fragalysis-2/maxwin/BulkDock/SCRATCH/511015/C8756-P96

>  <fragmenstein_runtime>  (1082) 
64.04552960395813

>  <fragmenstein_outcome>  (1082) 
too moved

>  <fragmenstein_mode>  (1082) 
expansion

>  <fragmenstein_error>  (1082) 


$$$$
C8756-P124
     RDKit          3D

 48 50  0  0  0  0  0  0  0  0999 V2000
   12.9002  -14.6154   19.9975 C   0  0  0  0  0  0  0  0  0  0  0  0
   11.7136  -14.7268   19.0484 C   0  0  0  0  0  0  0  0  0  0  0  0
   11.2797  -16.3595   18.9509 C   0  0  0  0  0  0  0  0  0  0  0  0
   10.3671  -17.1196   19.8964 N   0  0  0  0  0  0  0  0  0  0  0  0
   10.0707  -18.4991   19.4229 C   0  0  0  0  0  0  0  0  0  0  0  0
    9.3238  -19.1622   20.5753 C   0  0  0  0  0  0  0  0  0  0  0  0
    9.9982  -18.5629   21.8003 C   0  0  0  0  0  0  0  0  0  0  0  0
   10.8165  -17.3545   21.2765 C   0  0  0  0  0  0  0  0  0  0  0  0
   12.0539  -14.0030   17.5997 N   0  0  0  0  0  0  0  0  0  0  0  0
   13.0290  -12.5123   17.4732 S   0  0  0  0  0  0  0  0  0  0  0  0
   14.3296  -12.8400   16.9355 O   0  0  0  0  0  0  0  0  0  0  0  0
   12.8719  -11.8133   18.7320 O   0  0  0  0  0  0  0  0  0  0  0  0
   12.4098  -11.3007   16.3471 C   0  0  0  0  0  0  0  0  0  0  0  0
   11.0999  -10.8905   16.4162 C   0  0  0  0  0  0  0  0  0  0  0  0
   10.9168   -9.7045   15.8561 N   0  0  0  0  0  0  0  0  0  0  0  0
   12.2834   -8.9299   15.9354 N   0  0  0  0  0  0  0  0  0  0  0  0
   12.4888   -7.0357   16.0657 C   0  0  0  0  0  0  0  0  0  0  0  0
   11.3841   -6.0034   15.9911 C   0  0  0  0  0  0  0  0  0  0  0  0
   11.4010   -4.3908   15.5591 C   0  0  0  0  0  0  0  0  0  0  0  0
   12.7156   -3.9766   16.0187 C   0  0  0  0  0  0  0  0  0  0  0  0
   13.3326   -5.3244   16.4074 C   0  0  0  0  0  0  0  0  0  0  0  0
   13.0275  -10.2956   15.5549 C   0  0  0  0  0  0  0  0  0  0  0  0
   13.0704  -13.5877   20.3229 H   0  0  0  0  0  0  0  0  0  0  0  0
   13.8175  -14.9767   19.5214 H   0  0  0  0  0  0  0  0  0  0  0  0
   12.7337  -15.2019   20.9057 H   0  0  0  0  0  0  0  0  0  0  0  0
   10.8415  -14.1886   19.4369 H   0  0  0  0  0  0  0  0  0  0  0  0
   12.2349  -16.9044   18.9252 H   0  0  0  0  0  0  0  0  0  0  0  0
   10.8891  -16.4834   17.9356 H   0  0  0  0  0  0  0  0  0  0  0  0
   11.0094  -19.0392   19.2376 H   0  0  0  0  0  0  0  0  0  0  0  0
    9.4934  -18.5353   18.4994 H   0  0  0  0  0  0  0  0  0  0  0  0
    8.2572  -18.9290   20.5382 H   0  0  0  0  0  0  0  0  0  0  0  0
    9.4244  -20.2518   20.5500 H   0  0  0  0  0  0  0  0  0  0  0  0
    9.2741  -18.2924   22.5708 H   0  0  0  0  0  0  0  0  0  0  0  0
   10.6815  -19.2930   22.2503 H   0  0  0  0  0  0  0  0  0  0  0  0
   10.6950  -16.4730   21.9116 H   0  0  0  0  0  0  0  0  0  0  0  0
   11.8808  -17.6225   21.2895 H   0  0  0  0  0  0  0  0  0  0  0  0
   11.1778  -13.8760   17.0906 H   0  0  0  0  0  0  0  0  0  0  0  0
   10.2427  -11.3666   16.8734 H   0  0  0  0  0  0  0  0  0  0  0  0
   13.3356   -7.2273   15.4392 H   0  0  0  0  0  0  0  0  0  0  0  0
   11.0249   -5.6771   16.9281 H   0  0  0  0  0  0  0  0  0  0  0  0
   10.7658   -6.5490   15.3459 H   0  0  0  0  0  0  0  0  0  0  0  0
   11.1994   -4.1602   14.5040 H   0  0  0  0  0  0  0  0  0  0  0  0
   10.6550   -3.8036   16.0816 H   0  0  0  0  0  0  0  0  0  0  0  0
   13.2757   -3.3997   15.2831 H   0  0  0  0  0  0  0  0  0  0  0  0
   12.6431   -3.3106   16.8891 H   0  0  0  0  0  0  0  0  0  0  0  0
   13.3001   -5.0880   17.4801 H   0  0  0  0  0  0  0  0  0  0  0  0
   14.3192   -5.2456   15.9401 H   0  0  0  0  0  0  0  0  0  0  0  0
   13.9871  -10.2408   15.0721 H   0  0  0  0  0  0  0  0  0  0  0  0
  1  2  1  0
  2  3  1  0
  3  4  1  0
  4  5  1  0
  5  6  1  0
  6  7  1  0
  7  8  1  0
  2  9  1  0
  9 10  1  0
 10 11  2  0
 10 12  2  0
 10 13  1  0
 13 14  1  0
 14 15  2  0
 15 16  1  0
 16 17  1  0
 17 18  1  0
 18 19  1  0
 19 20  1  0
 20 21  1  0
 16 22  1  0
  8  4  1  0
 22 13  2  0
 21 17  1  0
  1 23  1  0
  1 24  1  0
  1 25  1  0
  2 26  1  0
  3 27  1  0
  3 28  1  0
  5 29  1  0
  5 30  1  0
  6 31  1  0
  6 32  1  0
  7 33  1  0
  7 34  1  0
  8 35  1  0
  8 36  1  0
  9 37  1  0
 14 38  1  0
 17 39  1  0
 18 40  1  0
 18 41  1  0
 19 42  1  0
 19 43  1  0
 20 44  1  0
 20 45  1  0
 21 46  1  0
 21 47  1  0
 22 48  1  0
M  END
>  <Energy>  (1083) 
356.2448441595501

>  <compound_id>  (1083) 
8756

>  <target_id>  (1083) 
1

>  <reference_id>  (1083) 
124

>  <inspiration_ids>  (1083) 
[96, 124]

>  <energy_score>  (1083) 
321.81102956778267

>  <distance_score>  (1083) 
15.663895037611105

>  <path>  (1083) 
/opt/xchem-fragalysis-2/maxwin/BulkDock/SCRATCH/511015/C8756-P124/C8756-P124.minimised.mol

>  <scratch_subdir>  (1083) 
/opt/xchem-fragalysis-2/maxwin/BulkDock/SCRATCH/511015/C8756-P124

>  <fragmenstein_runtime>  (1083) 
85.13320302963257

>  <fragmenstein_outcome>  (1083) 
too moved

>  <fragmenstein_mode>  (1083) 
expansion

>  <fragmenstein_error>  (1083) 


$$$$
C7838-P56
     RDKit          3D

 51 52  0  0  0  0  0  0  0  0999 V2000
   -3.7476    3.9164   16.9493 C   0  0  0  0  0  0  0  0  0  0  0  0
   -5.0364    4.2807   17.6106 N   0  0  0  0  0  0  0  0  0  0  0  0
   -5.6442    3.8580   16.1034 C   0  0  0  0  0  0  0  0  0  0  0  0
   -5.8842    2.2954   15.7435 C   0  0  0  0  0  0  0  0  0  0  0  0
   -6.1711    1.6594   14.3687 N   0  0  0  0  0  0  0  0  0  0  0  0
   -5.3014    0.9139   13.4565 C   0  0  0  0  0  0  0  0  0  0  0  0
   -4.1177    0.6840   13.5185 O   0  0  0  0  0  0  0  0  0  0  0  0
   -6.0071    0.0599   12.0724 C   0  0  0  0  0  0  0  0  0  0  0  0
   -7.0040    0.0332   10.6172 N   0  0  0  0  0  0  0  0  0  0  0  0
   -6.4825   -0.3614    9.2242 C   0  0  0  0  0  0  0  0  0  0  0  0
   -7.6719   -0.8111    8.3940 C   0  0  0  0  0  0  0  0  0  0  0  0
   -8.7088    0.1767    8.8493 C   0  0  0  0  0  0  0  0  0  0  0  0
   -8.4248    0.3488   10.3505 C   0  0  0  0  0  0  0  0  0  0  0  0
   -5.1509    3.6058   18.9145 C   0  0  0  0  0  0  0  0  0  0  0  0
   -5.6368    2.5335   19.1994 O   0  0  0  0  0  0  0  0  0  0  0  0
   -4.4177    4.2897   20.2797 C   0  0  0  0  0  0  0  0  0  0  0  0
   -3.6852    5.4345   20.5450 C   0  0  0  0  0  0  0  0  0  0  0  0
   -2.9500    5.6026   21.8157 C   0  0  0  0  0  0  0  0  0  0  0  0
   -2.8968    4.6285   22.8351 C   0  0  0  0  0  0  0  0  0  0  0  0
   -2.1861    4.7328   24.0421 N   0  0  0  0  0  0  0  0  0  0  0  0
   -2.3021    3.6083   24.9888 C   0  0  0  0  0  0  0  0  0  0  0  0
   -0.8581    5.3218   23.9241 C   0  0  0  0  0  0  0  0  0  0  0  0
   -3.5890    3.5326   22.5987 N   0  0  0  0  0  0  0  0  0  0  0  0
   -4.2981    3.4303   21.4052 C   0  0  0  0  0  0  0  0  0  0  0  0
   -3.4958    4.4716   16.0362 H   0  0  0  0  0  0  0  0  0  0  0  0
   -2.9688    4.2858   17.6303 H   0  0  0  0  0  0  0  0  0  0  0  0
   -3.5669    2.8414   16.8809 H   0  0  0  0  0  0  0  0  0  0  0  0
   -6.6624    4.2655   16.1893 H   0  0  0  0  0  0  0  0  0  0  0  0
   -5.2138    4.4377   15.2746 H   0  0  0  0  0  0  0  0  0  0  0  0
   -6.7233    1.9697   16.3692 H   0  0  0  0  0  0  0  0  0  0  0  0
   -5.0052    1.7435   16.0797 H   0  0  0  0  0  0  0  0  0  0  0  0
   -7.1195    1.5826   14.0515 H   0  0  0  0  0  0  0  0  0  0  0  0
   -5.0479   -0.2427   11.6343 H   0  0  0  0  0  0  0  0  0  0  0  0
   -6.2844   -0.7322   12.6956 H   0  0  0  0  0  0  0  0  0  0  0  0
   -6.1346    0.5214    8.6638 H   0  0  0  0  0  0  0  0  0  0  0  0
   -5.6587   -1.0674    9.1550 H   0  0  0  0  0  0  0  0  0  0  0  0
   -7.4804   -0.7317    7.3191 H   0  0  0  0  0  0  0  0  0  0  0  0
   -7.9683   -1.8411    8.6035 H   0  0  0  0  0  0  0  0  0  0  0  0
   -9.7276   -0.1717    8.6542 H   0  0  0  0  0  0  0  0  0  0  0  0
   -8.5709    1.1342    8.3316 H   0  0  0  0  0  0  0  0  0  0  0  0
   -8.7492    1.3565   10.6041 H   0  0  0  0  0  0  0  0  0  0  0  0
   -9.1004   -0.3682   10.8114 H   0  0  0  0  0  0  0  0  0  0  0  0
   -3.6176    6.2166   19.7937 H   0  0  0  0  0  0  0  0  0  0  0  0
   -2.4200    6.5425   21.9471 H   0  0  0  0  0  0  0  0  0  0  0  0
   -1.8834    3.8963   25.9594 H   0  0  0  0  0  0  0  0  0  0  0  0
   -1.7456    2.7403   24.6257 H   0  0  0  0  0  0  0  0  0  0  0  0
   -3.3485    3.3375   25.1645 H   0  0  0  0  0  0  0  0  0  0  0  0
   -0.3607    5.3454   24.9004 H   0  0  0  0  0  0  0  0  0  0  0  0
   -0.2266    4.7408   23.2420 H   0  0  0  0  0  0  0  0  0  0  0  0
   -0.9032    6.3594   23.5781 H   0  0  0  0  0  0  0  0  0  0  0  0
   -4.7868    2.4676   21.3412 H   0  0  0  0  0  0  0  0  0  0  0  0
  1  2  1  0
  2  3  1  0
  3  4  1  0
  4  5  1  0
  5  6  1  0
  6  7  2  0
  6  8  1  0
  8  9  1  0
  9 10  1  0
 10 11  1  0
 11 12  1  0
 12 13  1  0
  2 14  1  0
 14 15  2  0
 14 16  1  0
 16 17  2  0
 17 18  1  0
 18 19  2  0
 19 20  1  0
 20 21  1  0
 20 22  1  0
 19 23  1  0
 23 24  2  0
 13  9  1  0
 24 16  1  0
  1 25  1  0
  1 26  1  0
  1 27  1  0
  3 28  1  0
  3 29  1  0
  4 30  1  0
  4 31  1  0
  5 32  1  0
  8 33  1  0
  8 34  1  0
 10 35  1  0
 10 36  1  0
 11 37  1  0
 11 38  1  0
 12 39  1  0
 12 40  1  0
 13 41  1  0
 13 42  1  0
 17 43  1  0
 18 44  1  0
 21 45  1  0
 21 46  1  0
 21 47  1  0
 22 48  1  0
 22 49  1  0
 22 50  1  0
 24 51  1  0
M  END
>  <Energy>  (1084) 
285.98282569416705

>  <compound_id>  (1084) 
7838

>  <target_id>  (1084) 
1

>  <reference_id>  (1084) 
56

>  <inspiration_ids>  (1084) 
[56, 95]

>  <energy_score>  (1084) 
201.76180805563618

>  <distance_score>  (1084) 
13.074478455157227

>  <path>  (1084) 
/opt/xchem-fragalysis-2/maxwin/BulkDock/SCRATCH/511015/C7838-P56/C7838-P56.minimised.mol

>  <scratch_subdir>  (1084) 
/opt/xchem-fragalysis-2/maxwin/BulkDock/SCRATCH/511015/C7838-P56

>  <fragmenstein_runtime>  (1084) 
23.60231637954712

>  <fragmenstein_outcome>  (1084) 
too moved

>  <fragmenstein_mode>  (1084) 
expansion

>  <fragmenstein_error>  (1084) 


$$$$
C7838-P95
     RDKit          3D

 51 52  0  0  0  0  0  0  0  0999 V2000
   -4.4298    1.1134   20.6936 C   0  0  0  0  0  0  0  0  0  0  0  0
   -4.0687   -0.9127   21.2053 N   0  0  0  0  0  0  0  0  0  0  0  0
   -4.0024   -0.9416   19.0561 C   0  0  0  0  0  0  0  0  0  0  0  0
   -4.2239    0.5441   17.3866 C   0  0  0  0  0  0  0  0  0  0  0  0
   -4.8008    0.9300   15.6489 N   0  0  0  0  0  0  0  0  0  0  0  0
   -5.2430   -0.0573   14.4316 C   0  0  0  0  0  0  0  0  0  0  0  0
   -5.3772   -1.2687   14.4106 O   0  0  0  0  0  0  0  0  0  0  0  0
   -5.4548    0.6956   12.8276 C   0  0  0  0  0  0  0  0  0  0  0  0
   -6.0335   -0.0103   11.2747 N   0  0  0  0  0  0  0  0  0  0  0  0
   -5.0485   -0.2217    9.8481 C   0  0  0  0  0  0  0  0  0  0  0  0
   -6.0545   -0.3417    8.6795 C   0  0  0  0  0  0  0  0  0  0  0  0
   -7.3221    0.3480    9.1016 C   0  0  0  0  0  0  0  0  0  0  0  0
   -7.3383    0.3981   10.6363 C   0  0  0  0  0  0  0  0  0  0  0  0
   -2.6578   -1.6473   22.3764 C   0  0  0  0  0  0  0  0  0  0  0  0
   -1.5861   -2.0537   22.1115 O   0  0  0  0  0  0  0  0  0  0  0  0
   -3.0203   -1.9844   24.4577 C   0  0  0  0  0  0  0  0  0  0  0  0
   -2.8314   -2.6805   25.6600 C   0  0  0  0  0  0  0  0  0  0  0  0
   -1.9740   -2.3474   27.1047 C   0  0  0  0  0  0  0  0  0  0  0  0
   -1.7768   -1.1843   27.7447 C   0  0  0  0  0  0  0  0  0  0  0  0
   -1.1255   -1.0407   28.9604 N   0  0  0  0  0  0  0  0  0  0  0  0
   -1.2686    0.2440   29.6094 C   0  0  0  0  0  0  0  0  0  0  0  0
   -1.0046   -2.1969   29.8339 C   0  0  0  0  0  0  0  0  0  0  0  0
   -2.2303   -0.2474   26.9699 N   0  0  0  0  0  0  0  0  0  0  0  0
   -2.6733   -0.6697   25.5891 C   0  0  0  0  0  0  0  0  0  0  0  0
   -4.0250    2.1845   20.6982 H   0  0  0  0  0  0  0  0  0  0  0  0
   -5.4459    1.3407   20.1944 H   0  0  0  0  0  0  0  0  0  0  0  0
   -4.4865    1.5562   21.7387 H   0  0  0  0  0  0  0  0  0  0  0  0
   -4.2899   -1.9682   18.9401 H   0  0  0  0  0  0  0  0  0  0  0  0
   -3.0282   -1.2427   18.6418 H   0  0  0  0  0  0  0  0  0  0  0  0
   -3.9466   -0.1320   16.6818 H   0  0  0  0  0  0  0  0  0  0  0  0
   -5.1040    1.1815   17.6888 H   0  0  0  0  0  0  0  0  0  0  0  0
   -4.7091    1.8742   15.3029 H   0  0  0  0  0  0  0  0  0  0  0  0
   -6.4720    0.8534   13.1191 H   0  0  0  0  0  0  0  0  0  0  0  0
   -4.5495    0.1439   12.5985 H   0  0  0  0  0  0  0  0  0  0  0  0
   -4.2571    0.5014    9.6400 H   0  0  0  0  0  0  0  0  0  0  0  0
   -4.4659   -1.1247    9.7213 H   0  0  0  0  0  0  0  0  0  0  0  0
   -5.6477    0.0963    7.7625 H   0  0  0  0  0  0  0  0  0  0  0  0
   -6.2716   -1.3922    8.4644 H   0  0  0  0  0  0  0  0  0  0  0  0
   -7.3438    1.3649    8.6914 H   0  0  0  0  0  0  0  0  0  0  0  0
   -8.2017   -0.1705    8.7042 H   0  0  0  0  0  0  0  0  0  0  0  0
   -8.1736   -0.2125   10.9247 H   0  0  0  0  0  0  0  0  0  0  0  0
   -7.7245    1.3567   10.9284 H   0  0  0  0  0  0  0  0  0  0  0  0
   -3.7866   -2.5836   26.2380 H   0  0  0  0  0  0  0  0  0  0  0  0
   -1.3543   -3.1638   27.4846 H   0  0  0  0  0  0  0  0  0  0  0  0
   -2.2620    0.3459   30.0562 H   0  0  0  0  0  0  0  0  0  0  0  0
   -1.1039    1.0771   28.9165 H   0  0  0  0  0  0  0  0  0  0  0  0
   -0.5285    0.3560   30.4098 H   0  0  0  0  0  0  0  0  0  0  0  0
   -0.5230   -1.9224   30.7796 H   0  0  0  0  0  0  0  0  0  0  0  0
   -0.3731   -2.9729   29.3884 H   0  0  0  0  0  0  0  0  0  0  0  0
   -1.9844   -2.6212   30.0769 H   0  0  0  0  0  0  0  0  0  0  0  0
   -2.8021    0.3863   25.2702 H   0  0  0  0  0  0  0  0  0  0  0  0
  1  2  1  0
  2  3  1  0
  3  4  1  0
  4  5  1  0
  5  6  1  0
  6  7  2  0
  6  8  1  0
  8  9  1  0
  9 10  1  0
 10 11  1  0
 11 12  1  0
 12 13  1  0
  2 14  1  0
 14 15  2  0
 14 16  1  0
 16 17  2  0
 17 18  1  0
 18 19  2  0
 19 20  1  0
 20 21  1  0
 20 22  1  0
 19 23  1  0
 23 24  2  0
 13  9  1  0
 24 16  1  0
  1 25  1  0
  1 26  1  0
  1 27  1  0
  3 28  1  0
  3 29  1  0
  4 30  1  0
  4 31  1  0
  5 32  1  0
  8 33  1  0
  8 34  1  0
 10 35  1  0
 10 36  1  0
 11 37  1  0
 11 38  1  0
 12 39  1  0
 12 40  1  0
 13 41  1  0
 13 42  1  0
 17 43  1  0
 18 44  1  0
 21 45  1  0
 21 46  1  0
 21 47  1  0
 22 48  1  0
 22 49  1  0
 22 50  1  0
 24 51  1  0
M  END
>  <Energy>  (1085) 
1313.7291087263479

>  <compound_id>  (1085) 
7838

>  <target_id>  (1085) 
1

>  <reference_id>  (1085) 
95

>  <inspiration_ids>  (1085) 
[56, 95]

>  <energy_score>  (1085) 
1229.508091087811

>  <distance_score>  (1085) 
9.679951704149001

>  <path>  (1085) 
/opt/xchem-fragalysis-2/maxwin/BulkDock/SCRATCH/511015/C7838-P95/C7838-P95.minimised.mol

>  <scratch_subdir>  (1085) 
/opt/xchem-fragalysis-2/maxwin/BulkDock/SCRATCH/511015/C7838-P95

>  <fragmenstein_runtime>  (1085) 
15.536805391311646

>  <fragmenstein_outcome>  (1085) 
too moved

>  <fragmenstein_mode>  (1085) 
expansion

>  <fragmenstein_error>  (1085) 


$$$$
C7849-P56
     RDKit          3D

 51 52  0  0  0  0  0  0  0  0999 V2000
   -3.2399   -2.6360    8.9033 C   0  0  0  0  0  0  0  0  0  0  0  0
   -3.2753   -4.5882    9.1409 N   0  0  0  0  0  0  0  0  0  0  0  0
   -3.9407   -4.2072    7.8403 C   0  0  0  0  0  0  0  0  0  0  0  0
   -5.1126   -3.3487    7.1705 C   0  0  0  0  0  0  0  0  0  0  0  0
   -6.5117   -3.5973    7.1484 N   0  0  0  0  0  0  0  0  0  0  0  0
   -7.6287   -2.7044    7.2964 C   0  0  0  0  0  0  0  0  0  0  0  0
   -7.6655   -1.5354    7.5559 O   0  0  0  0  0  0  0  0  0  0  0  0
   -8.9303   -3.4479    6.9504 C   0  0  0  0  0  0  0  0  0  0  0  0
   -9.5142   -3.0100    5.6799 N   0  0  0  0  0  0  0  0  0  0  0  0
  -10.2183   -1.7299    5.7791 C   0  0  0  0  0  0  0  0  0  0  0  0
  -10.0331   -1.0867    4.4190 C   0  0  0  0  0  0  0  0  0  0  0  0
   -8.6487   -1.5515    4.0212 C   0  0  0  0  0  0  0  0  0  0  0  0
   -8.6167   -2.9805    4.5288 C   0  0  0  0  0  0  0  0  0  0  0  0
   -3.9065   -5.6167   10.4985 C   0  0  0  0  0  0  0  0  0  0  0  0
   -5.0241   -6.1164   10.6633 O   0  0  0  0  0  0  0  0  0  0  0  0
   -2.8379   -6.1619   11.7633 C   0  0  0  0  0  0  0  0  0  0  0  0
   -1.4480   -6.2913   11.6091 C   0  0  0  0  0  0  0  0  0  0  0  0
   -0.5286   -6.7134   12.5438 N   0  0  0  0  0  0  0  0  0  0  0  0
   -1.0106   -7.2309   13.6780 C   0  0  0  0  0  0  0  0  0  0  0  0
   -2.3586   -7.2985   13.9305 C   0  0  0  0  0  0  0  0  0  0  0  0
   -3.2989   -6.6834   13.0609 C   0  0  0  0  0  0  0  0  0  0  0  0
   -4.6655   -6.7438   13.4869 N   0  0  0  0  0  0  0  0  0  0  0  0
   -5.2586   -7.9999   12.9965 C   0  0  0  0  0  0  0  0  0  0  0  0
   -4.9875   -6.4836   14.9078 C   0  0  0  0  0  0  0  0  0  0  0  0
   -3.9858   -1.8814    9.2707 H   0  0  0  0  0  0  0  0  0  0  0  0
   -3.1621   -2.2663    7.8704 H   0  0  0  0  0  0  0  0  0  0  0  0
   -2.2454   -2.2223    9.0886 H   0  0  0  0  0  0  0  0  0  0  0  0
   -3.7268   -5.0803    7.2331 H   0  0  0  0  0  0  0  0  0  0  0  0
   -3.0472   -3.8344    7.4198 H   0  0  0  0  0  0  0  0  0  0  0  0
   -4.9103   -3.4832    6.1203 H   0  0  0  0  0  0  0  0  0  0  0  0
   -5.0310   -2.2765    7.3635 H   0  0  0  0  0  0  0  0  0  0  0  0
   -6.8513   -4.5037    6.8432 H   0  0  0  0  0  0  0  0  0  0  0  0
   -8.7777   -4.5313    6.9171 H   0  0  0  0  0  0  0  0  0  0  0  0
   -9.6213   -3.2633    7.7696 H   0  0  0  0  0  0  0  0  0  0  0  0
  -11.2774   -1.8771    6.0126 H   0  0  0  0  0  0  0  0  0  0  0  0
   -9.8017   -1.0660    6.5432 H   0  0  0  0  0  0  0  0  0  0  0  0
  -10.1118    0.0037    4.4547 H   0  0  0  0  0  0  0  0  0  0  0  0
  -10.7790   -1.4652    3.7093 H   0  0  0  0  0  0  0  0  0  0  0  0
   -8.4803   -1.4837    2.9426 H   0  0  0  0  0  0  0  0  0  0  0  0
   -7.8880   -0.9482    4.5310 H   0  0  0  0  0  0  0  0  0  0  0  0
   -9.0363   -3.6396    3.7599 H   0  0  0  0  0  0  0  0  0  0  0  0
   -7.5981   -3.3276    4.7147 H   0  0  0  0  0  0  0  0  0  0  0  0
   -0.9814   -6.0604   10.6571 H   0  0  0  0  0  0  0  0  0  0  0  0
   -0.2819   -7.6528   14.3587 H   0  0  0  0  0  0  0  0  0  0  0  0
   -2.6811   -7.8349   14.8142 H   0  0  0  0  0  0  0  0  0  0  0  0
   -5.0592   -8.1822   11.9357 H   0  0  0  0  0  0  0  0  0  0  0  0
   -4.8822   -8.8605   13.5630 H   0  0  0  0  0  0  0  0  0  0  0  0
   -6.3439   -7.9716   13.1252 H   0  0  0  0  0  0  0  0  0  0  0  0
   -4.6287   -7.2707   15.5758 H   0  0  0  0  0  0  0  0  0  0  0  0
   -6.0786   -6.4624   15.0124 H   0  0  0  0  0  0  0  0  0  0  0  0
   -4.6399   -5.4941   15.2001 H   0  0  0  0  0  0  0  0  0  0  0  0
  1  2  1  0
  2  3  1  0
  3  4  1  0
  4  5  1  0
  5  6  1  0
  6  7  2  0
  6  8  1  0
  8  9  1  0
  9 10  1  0
 10 11  1  0
 11 12  1  0
 12 13  1  0
  2 14  1  0
 14 15  2  0
 14 16  1  0
 16 17  2  0
 17 18  1  0
 18 19  2  0
 19 20  1  0
 20 21  2  0
 21 22  1  0
 22 23  1  0
 22 24  1  0
 13  9  1  0
 21 16  1  0
  1 25  1  0
  1 26  1  0
  1 27  1  0
  3 28  1  0
  3 29  1  0
  4 30  1  0
  4 31  1  0
  5 32  1  0
  8 33  1  0
  8 34  1  0
 10 35  1  0
 10 36  1  0
 11 37  1  0
 11 38  1  0
 12 39  1  0
 12 40  1  0
 13 41  1  0
 13 42  1  0
 17 43  1  0
 19 44  1  0
 20 45  1  0
 23 46  1  0
 23 47  1  0
 23 48  1  0
 24 49  1  0
 24 50  1  0
 24 51  1  0
M  END
>  <Energy>  (1086) 
430.61177612941526

>  <compound_id>  (1086) 
7849

>  <target_id>  (1086) 
1

>  <reference_id>  (1086) 
56

>  <inspiration_ids>  (1086) 
[56, 95]

>  <energy_score>  (1086) 
307.8387515100083

>  <distance_score>  (1086) 
16.592620218256886

>  <path>  (1086) 
/opt/xchem-fragalysis-2/maxwin/BulkDock/SCRATCH/511015/C7849-P56/C7849-P56.minimised.mol

>  <scratch_subdir>  (1086) 
/opt/xchem-fragalysis-2/maxwin/BulkDock/SCRATCH/511015/C7849-P56

>  <fragmenstein_runtime>  (1086) 
29.367079734802246

>  <fragmenstein_outcome>  (1086) 
too moved

>  <fragmenstein_mode>  (1086) 
expansion

>  <fragmenstein_error>  (1086) 


$$$$
C7849-P95
     RDKit          3D

 51 52  0  0  0  0  0  0  0  0999 V2000
   -2.7381   -3.7997   16.0195 C   0  0  0  0  0  0  0  0  0  0  0  0
   -4.5441   -4.4001   16.0017 N   0  0  0  0  0  0  0  0  0  0  0  0
   -4.0334   -5.1551   14.2331 C   0  0  0  0  0  0  0  0  0  0  0  0
   -3.1891   -5.2783   12.4008 C   0  0  0  0  0  0  0  0  0  0  0  0
   -3.5220   -5.4040   10.4356 N   0  0  0  0  0  0  0  0  0  0  0  0
   -3.2704   -4.1554    9.0348 C   0  0  0  0  0  0  0  0  0  0  0  0
   -2.9153   -2.9544    9.1151 O   0  0  0  0  0  0  0  0  0  0  0  0
   -3.5753   -4.4774    7.5802 C   0  0  0  0  0  0  0  0  0  0  0  0
   -4.4979   -3.4559    6.8327 N   0  0  0  0  0  0  0  0  0  0  0  0
   -5.9407   -3.6147    6.6179 C   0  0  0  0  0  0  0  0  0  0  0  0
   -6.4896   -2.2145    6.3760 C   0  0  0  0  0  0  0  0  0  0  0  0
   -5.2609   -1.4084    6.0206 C   0  0  0  0  0  0  0  0  0  0  0  0
   -4.1923   -2.0272    6.9094 C   0  0  0  0  0  0  0  0  0  0  0  0
   -4.9191   -5.1614   17.5244 C   0  0  0  0  0  0  0  0  0  0  0  0
   -4.7185   -6.3062   17.4529 O   0  0  0  0  0  0  0  0  0  0  0  0
   -5.4346   -4.6673   19.4499 C   0  0  0  0  0  0  0  0  0  0  0  0
   -6.1516   -3.8681   20.2666 C   0  0  0  0  0  0  0  0  0  0  0  0
   -5.8852   -3.7140   21.5495 N   0  0  0  0  0  0  0  0  0  0  0  0
   -4.6740   -4.1612   21.6663 C   0  0  0  0  0  0  0  0  0  0  0  0
   -4.7013   -5.4281   21.4191 C   0  0  0  0  0  0  0  0  0  0  0  0
   -5.7303   -5.6305   20.6031 C   0  0  0  0  0  0  0  0  0  0  0  0
   -6.5317   -6.8274   20.9474 N   0  0  0  0  0  0  0  0  0  0  0  0
   -7.5911   -7.4936   20.1495 C   0  0  0  0  0  0  0  0  0  0  0  0
   -6.4187   -7.5245   22.2746 C   0  0  0  0  0  0  0  0  0  0  0  0
   -1.8655   -4.0916   16.4931 H   0  0  0  0  0  0  0  0  0  0  0  0
   -1.9929   -3.3039   15.2581 H   0  0  0  0  0  0  0  0  0  0  0  0
   -2.7119   -2.8819   16.4801 H   0  0  0  0  0  0  0  0  0  0  0  0
   -5.0784   -5.1256   13.8701 H   0  0  0  0  0  0  0  0  0  0  0  0
   -3.9493   -6.2102   14.5335 H   0  0  0  0  0  0  0  0  0  0  0  0
   -3.2180   -6.3829   12.4362 H   0  0  0  0  0  0  0  0  0  0  0  0
   -2.1115   -5.0984   12.5833 H   0  0  0  0  0  0  0  0  0  0  0  0
   -3.7277   -6.3043   10.0582 H   0  0  0  0  0  0  0  0  0  0  0  0
   -2.7166   -4.0981    7.0640 H   0  0  0  0  0  0  0  0  0  0  0  0
   -3.3802   -5.4202    7.1938 H   0  0  0  0  0  0  0  0  0  0  0  0
   -6.5037   -4.0769    7.4262 H   0  0  0  0  0  0  0  0  0  0  0  0
   -6.1338   -4.2023    5.7155 H   0  0  0  0  0  0  0  0  0  0  0  0
   -6.9378   -1.8221    7.2970 H   0  0  0  0  0  0  0  0  0  0  0  0
   -7.2458   -2.1878    5.5858 H   0  0  0  0  0  0  0  0  0  0  0  0
   -5.0066   -1.5414    4.9619 H   0  0  0  0  0  0  0  0  0  0  0  0
   -5.4048   -0.3420    6.2115 H   0  0  0  0  0  0  0  0  0  0  0  0
   -4.3215   -1.6179    7.9158 H   0  0  0  0  0  0  0  0  0  0  0  0
   -3.1899   -1.7893    6.5433 H   0  0  0  0  0  0  0  0  0  0  0  0
   -6.9793   -3.2457   20.1235 H   0  0  0  0  0  0  0  0  0  0  0  0
   -3.9915   -3.6185   22.2705 H   0  0  0  0  0  0  0  0  0  0  0  0
   -4.2603   -6.2197   21.9771 H   0  0  0  0  0  0  0  0  0  0  0  0
   -7.4183   -7.5061   19.0744 H   0  0  0  0  0  0  0  0  0  0  0  0
   -7.6603   -8.5592   20.4014 H   0  0  0  0  0  0  0  0  0  0  0  0
   -8.5749   -7.0718   20.3777 H   0  0  0  0  0  0  0  0  0  0  0  0
   -7.1614   -7.1217   22.9687 H   0  0  0  0  0  0  0  0  0  0  0  0
   -5.4188   -7.5601   22.7071 H   0  0  0  0  0  0  0  0  0  0  0  0
   -6.6690   -8.5874   22.1657 H   0  0  0  0  0  0  0  0  0  0  0  0
  1  2  1  0
  2  3  1  0
  3  4  1  0
  4  5  1  0
  5  6  1  0
  6  7  2  0
  6  8  1  0
  8  9  1  0
  9 10  1  0
 10 11  1  0
 11 12  1  0
 12 13  1  0
  2 14  1  0
 14 15  2  0
 14 16  1  0
 16 17  2  0
 17 18  1  0
 18 19  2  0
 19 20  1  0
 20 21  2  0
 21 22  1  0
 22 23  1  0
 22 24  1  0
 13  9  1  0
 21 16  1  0
  1 25  1  0
  1 26  1  0
  1 27  1  0
  3 28  1  0
  3 29  1  0
  4 30  1  0
  4 31  1  0
  5 32  1  0
  8 33  1  0
  8 34  1  0
 10 35  1  0
 10 36  1  0
 11 37  1  0
 11 38  1  0
 12 39  1  0
 12 40  1  0
 13 41  1  0
 13 42  1  0
 17 43  1  0
 19 44  1  0
 20 45  1  0
 23 46  1  0
 23 47  1  0
 23 48  1  0
 24 49  1  0
 24 50  1  0
 24 51  1  0
M  END
>  <Energy>  (1087) 
1012.4858968103933

>  <compound_id>  (1087) 
7849

>  <target_id>  (1087) 
1

>  <reference_id>  (1087) 
95

>  <inspiration_ids>  (1087) 
[56, 95]

>  <energy_score>  (1087) 
889.7128721909864

>  <distance_score>  (1087) 
12.43671022257802

>  <path>  (1087) 
/opt/xchem-fragalysis-2/maxwin/BulkDock/SCRATCH/511015/C7849-P95/C7849-P95.minimised.mol

>  <scratch_subdir>  (1087) 
/opt/xchem-fragalysis-2/maxwin/BulkDock/SCRATCH/511015/C7849-P95

>  <fragmenstein_runtime>  (1087) 
14.769488334655762

>  <fragmenstein_outcome>  (1087) 
too moved

>  <fragmenstein_mode>  (1087) 
expansion

>  <fragmenstein_error>  (1087) 


$$$$
C7864-P56
     RDKit          3D

 41 42  0  0  0  0  0  0  0  0999 V2000
    1.2704   -3.5744   40.5443 C   0  0  0  0  0  0  0  0  0  0  0  0
    0.0470   -3.3456   39.7652 N   0  0  0  0  0  0  0  0  0  0  0  0
    0.2089   -3.8467   38.3831 C   0  0  0  0  0  0  0  0  0  0  0  0
    1.2467   -3.0926   37.5351 C   0  0  0  0  0  0  0  0  0  0  0  0
    1.1692   -3.4957   36.1540 N   0  0  0  0  0  0  0  0  0  0  0  0
    1.2957   -4.8858   35.5146 C   0  0  0  0  0  0  0  0  0  0  0  0
    1.4035   -5.9121   35.9973 O   0  0  0  0  0  0  0  0  0  0  0  0
    1.1740   -4.4996   34.0562 N   0  0  0  0  0  0  0  0  0  0  0  0
    1.2607   -5.3373   32.8205 C   0  0  0  0  0  0  0  0  0  0  0  0
    0.3403   -6.5358   32.9280 C   0  0  0  0  0  0  0  0  0  0  0  0
   -0.8418   -5.8593   33.4939 C   0  0  0  0  0  0  0  0  0  0  0  0
   -0.2686   -4.4617   33.6211 C   0  0  0  0  0  0  0  0  0  0  0  0
   -1.0924   -4.0627   40.3970 C   0  0  0  0  0  0  0  0  0  0  0  0
   -1.4623   -3.5596   41.7828 C   0  0  0  0  0  0  0  0  0  0  0  0
   -1.9859   -2.2773   41.9430 C   0  0  0  0  0  0  0  0  0  0  0  0
   -2.3137   -1.8385   43.2223 C   0  0  0  0  0  0  0  0  0  0  0  0
   -2.1098   -2.6855   44.3044 C   0  0  0  0  0  0  0  0  0  0  0  0
   -1.5796   -3.9414   44.0617 C   0  0  0  0  0  0  0  0  0  0  0  0
   -1.2481   -4.3954   42.8337 N   0  0  0  0  0  0  0  0  0  0  0  0
    1.5015   -4.6396   40.6397 H   0  0  0  0  0  0  0  0  0  0  0  0
    1.1818   -3.1528   41.5513 H   0  0  0  0  0  0  0  0  0  0  0  0
    2.1309   -3.0697   40.0944 H   0  0  0  0  0  0  0  0  0  0  0  0
    0.4395   -4.9187   38.3884 H   0  0  0  0  0  0  0  0  0  0  0  0
   -0.7568   -3.7470   37.8680 H   0  0  0  0  0  0  0  0  0  0  0  0
    2.2643   -3.3022   37.8746 H   0  0  0  0  0  0  0  0  0  0  0  0
    1.0729   -2.0126   37.5726 H   0  0  0  0  0  0  0  0  0  0  0  0
    1.1728   -2.7891   35.4320 H   0  0  0  0  0  0  0  0  0  0  0  0
    2.2999   -5.6824   32.7945 H   0  0  0  0  0  0  0  0  0  0  0  0
    1.1542   -4.7491   31.8930 H   0  0  0  0  0  0  0  0  0  0  0  0
    0.1643   -7.0223   31.9651 H   0  0  0  0  0  0  0  0  0  0  0  0
    0.6780   -7.2787   33.6516 H   0  0  0  0  0  0  0  0  0  0  0  0
   -1.6914   -5.8981   32.8130 H   0  0  0  0  0  0  0  0  0  0  0  0
   -1.1313   -6.2857   34.4603 H   0  0  0  0  0  0  0  0  0  0  0  0
   -0.4188   -3.8259   32.7313 H   0  0  0  0  0  0  0  0  0  0  0  0
   -0.8169   -3.9353   34.4131 H   0  0  0  0  0  0  0  0  0  0  0  0
   -0.8905   -5.1414   40.4483 H   0  0  0  0  0  0  0  0  0  0  0  0
   -1.9868   -3.9412   39.7733 H   0  0  0  0  0  0  0  0  0  0  0  0
   -2.1263   -1.6320   41.0820 H   0  0  0  0  0  0  0  0  0  0  0  0
   -2.7224   -0.8439   43.3717 H   0  0  0  0  0  0  0  0  0  0  0  0
   -2.3563   -2.3755   45.3131 H   0  0  0  0  0  0  0  0  0  0  0  0
   -1.4019   -4.6395   44.8744 H   0  0  0  0  0  0  0  0  0  0  0  0
  1  2  1  0
  2  3  1  0
  3  4  1  0
  4  5  1  0
  5  6  1  0
  6  7  2  0
  6  8  1  0
  8  9  1  0
  9 10  1  0
 10 11  1  0
 11 12  1  0
  2 13  1  0
 13 14  1  0
 14 15  2  0
 15 16  1  0
 16 17  2  0
 17 18  1  0
 18 19  2  0
 12  8  1  0
 19 14  1  0
  1 20  1  0
  1 21  1  0
  1 22  1  0
  3 23  1  0
  3 24  1  0
  4 25  1  0
  4 26  1  0
  5 27  1  0
  9 28  1  0
  9 29  1  0
 10 30  1  0
 10 31  1  0
 11 32  1  0
 11 33  1  0
 12 34  1  0
 12 35  1  0
 13 36  1  0
 13 37  1  0
 15 38  1  0
 16 39  1  0
 17 40  1  0
 18 41  1  0
M  END
>  <Energy>  (1088) 
62.270001629591135

>  <compound_id>  (1088) 
7864

>  <target_id>  (1088) 
1

>  <reference_id>  (1088) 
56

>  <inspiration_ids>  (1088) 
[56, 95]

>  <energy_score>  (1088) 
33.958182058294284

>  <distance_score>  (1088) 
2.0215026176099995

>  <path>  (1088) 
/opt/xchem-fragalysis-2/maxwin/BulkDock/SCRATCH/511015/C7864-P56/C7864-P56.minimised.mol

>  <scratch_subdir>  (1088) 
/opt/xchem-fragalysis-2/maxwin/BulkDock/SCRATCH/511015/C7864-P56

>  <fragmenstein_runtime>  (1088) 
3.305720806121826

>  <fragmenstein_outcome>  (1088) 
too moved

>  <fragmenstein_mode>  (1088) 
expansion

>  <fragmenstein_error>  (1088) 


$$$$
C7864-P95
     RDKit          3D

 41 42  0  0  0  0  0  0  0  0999 V2000
   -0.5581   -4.9639   39.1798 C   0  0  0  0  0  0  0  0  0  0  0  0
    0.1534   -3.8277   39.7465 N   0  0  0  0  0  0  0  0  0  0  0  0
    0.5171   -2.7992   38.7537 C   0  0  0  0  0  0  0  0  0  0  0  0
    1.5128   -3.2371   37.6709 C   0  0  0  0  0  0  0  0  0  0  0  0
    0.8883   -3.9345   36.5788 N   0  0  0  0  0  0  0  0  0  0  0  0
    1.5021   -4.7874   35.4646 C   0  0  0  0  0  0  0  0  0  0  0  0
    2.5935   -4.9958   35.2116 O   0  0  0  0  0  0  0  0  0  0  0  0
    0.2297   -5.2828   34.8007 N   0  0  0  0  0  0  0  0  0  0  0  0
    0.0364   -6.1035   33.5644 C   0  0  0  0  0  0  0  0  0  0  0  0
    0.8022   -7.4060   33.6053 C   0  0  0  0  0  0  0  0  0  0  0  0
    0.6282   -7.7446   35.0399 C   0  0  0  0  0  0  0  0  0  0  0  0
   -0.2441   -6.5749   35.4239 C   0  0  0  0  0  0  0  0  0  0  0  0
   -0.5641   -3.2372   40.8986 C   0  0  0  0  0  0  0  0  0  0  0  0
   -1.9190   -2.6023   40.6258 C   0  0  0  0  0  0  0  0  0  0  0  0
   -3.0893   -3.3402   40.7944 C   0  0  0  0  0  0  0  0  0  0  0  0
   -4.3158   -2.7256   40.5579 C   0  0  0  0  0  0  0  0  0  0  0  0
   -4.3462   -1.3974   40.1538 C   0  0  0  0  0  0  0  0  0  0  0  0
   -3.1407   -0.7348   40.0017 C   0  0  0  0  0  0  0  0  0  0  0  0
   -1.9361   -1.3034   40.2252 N   0  0  0  0  0  0  0  0  0  0  0  0
   -1.4207   -4.6638   38.5756 H   0  0  0  0  0  0  0  0  0  0  0  0
   -0.9076   -5.6439   39.9654 H   0  0  0  0  0  0  0  0  0  0  0  0
    0.1160   -5.5603   38.5600 H   0  0  0  0  0  0  0  0  0  0  0  0
   -0.3771   -2.3821   38.2739 H   0  0  0  0  0  0  0  0  0  0  0  0
    1.0042   -1.9760   39.2927 H   0  0  0  0  0  0  0  0  0  0  0  0
    1.9917   -2.3540   37.2338 H   0  0  0  0  0  0  0  0  0  0  0  0
    2.3120   -3.8662   38.0770 H   0  0  0  0  0  0  0  0  0  0  0  0
   -0.1162   -3.9004   36.4652 H   0  0  0  0  0  0  0  0  0  0  0  0
    0.4564   -5.4959   32.7516 H   0  0  0  0  0  0  0  0  0  0  0  0
   -1.0290   -6.2103   33.3047 H   0  0  0  0  0  0  0  0  0  0  0  0
    0.3783   -8.1473   32.9228 H   0  0  0  0  0  0  0  0  0  0  0  0
    1.8587   -7.2608   33.3585 H   0  0  0  0  0  0  0  0  0  0  0  0
    0.1363   -8.7022   35.2173 H   0  0  0  0  0  0  0  0  0  0  0  0
    1.5857   -7.7397   35.5710 H   0  0  0  0  0  0  0  0  0  0  0  0
   -1.3206   -6.7415   35.2516 H   0  0  0  0  0  0  0  0  0  0  0  0
   -0.1715   -6.4531   36.5109 H   0  0  0  0  0  0  0  0  0  0  0  0
    0.0778   -2.4756   41.3618 H   0  0  0  0  0  0  0  0  0  0  0  0
   -0.6778   -4.0019   41.6788 H   0  0  0  0  0  0  0  0  0  0  0  0
   -3.0533   -4.3799   41.1069 H   0  0  0  0  0  0  0  0  0  0  0  0
   -5.2369   -3.2843   40.6949 H   0  0  0  0  0  0  0  0  0  0  0  0
   -5.2843   -0.8879   39.9673 H   0  0  0  0  0  0  0  0  0  0  0  0
   -3.1089    0.3052   39.6896 H   0  0  0  0  0  0  0  0  0  0  0  0
  1  2  1  0
  2  3  1  0
  3  4  1  0
  4  5  1  0
  5  6  1  0
  6  7  2  0
  6  8  1  0
  8  9  1  0
  9 10  1  0
 10 11  1  0
 11 12  1  0
  2 13  1  0
 13 14  1  0
 14 15  2  0
 15 16  1  0
 16 17  2  0
 17 18  1  0
 18 19  2  0
 12  8  1  0
 19 14  1  0
  1 20  1  0
  1 21  1  0
  1 22  1  0
  3 23  1  0
  3 24  1  0
  4 25  1  0
  4 26  1  0
  5 27  1  0
  9 28  1  0
  9 29  1  0
 10 30  1  0
 10 31  1  0
 11 32  1  0
 11 33  1  0
 12 34  1  0
 12 35  1  0
 13 36  1  0
 13 37  1  0
 15 38  1  0
 16 39  1  0
 17 40  1  0
 18 41  1  0
M  END
>  <Energy>  (1089) 
66.096396461299307

>  <compound_id>  (1089) 
7864

>  <target_id>  (1089) 
1

>  <reference_id>  (1089) 
95

>  <inspiration_ids>  (1089) 
[56, 95]

>  <energy_score>  (1089) 
37.78457689000357

>  <distance_score>  (1089) 
1.5344716480065297

>  <path>  (1089) 
/opt/xchem-fragalysis-2/maxwin/BulkDock/SCRATCH/511015/C7864-P95/C7864-P95.minimised.mol

>  <scratch_subdir>  (1089) 
/opt/xchem-fragalysis-2/maxwin/BulkDock/SCRATCH/511015/C7864-P95

>  <fragmenstein_runtime>  (1089) 
3.292515993118286

>  <fragmenstein_outcome>  (1089) 
too moved

>  <fragmenstein_mode>  (1089) 
expansion

>  <fragmenstein_error>  (1089) 


$$$$
C7865-P56
     RDKit          3D

 44 45  0  0  0  0  0  0  0  0999 V2000
  -11.2373   -8.2116   18.6099 C   0  0  0  0  0  0  0  0  0  0  0  0
  -10.1702   -7.8070   19.5735 C   0  0  0  0  0  0  0  0  0  0  0  0
  -10.1483   -8.0374   20.9469 C   0  0  0  0  0  0  0  0  0  0  0  0
   -9.0529   -7.6142   21.7716 C   0  0  0  0  0  0  0  0  0  0  0  0
   -7.9768   -6.9113   21.2143 C   0  0  0  0  0  0  0  0  0  0  0  0
   -6.4984   -6.1345   22.1431 C   0  0  0  0  0  0  0  0  0  0  0  0
   -4.6393   -6.7227   22.5994 N   0  0  0  0  0  0  0  0  0  0  0  0
   -3.8597   -7.9179   22.1316 C   0  0  0  0  0  0  0  0  0  0  0  0
   -3.1685   -6.0005   23.5823 C   0  0  0  0  0  0  0  0  0  0  0  0
   -1.7104   -6.5532   24.5647 C   0  0  0  0  0  0  0  0  0  0  0  0
   -0.7855   -5.6424   25.2355 N   0  0  0  0  0  0  0  0  0  0  0  0
   -0.8756   -4.2161   25.4982 C   0  0  0  0  0  0  0  0  0  0  0  0
   -1.6812   -3.4264   25.1641 O   0  0  0  0  0  0  0  0  0  0  0  0
    0.2832   -4.0707   26.3859 N   0  0  0  0  0  0  0  0  0  0  0  0
    0.8559   -2.8566   27.0458 C   0  0  0  0  0  0  0  0  0  0  0  0
    1.8033   -3.2120   28.1752 C   0  0  0  0  0  0  0  0  0  0  0  0
    1.0617   -4.3538   28.7725 C   0  0  0  0  0  0  0  0  0  0  0  0
   -0.1108   -4.3927   27.8192 C   0  0  0  0  0  0  0  0  0  0  0  0
   -8.2408   -6.4419   19.9270 N   0  0  0  0  0  0  0  0  0  0  0  0
   -9.1326   -7.0630   19.1185 C   0  0  0  0  0  0  0  0  0  0  0  0
  -11.8814   -8.9788   19.0521 H   0  0  0  0  0  0  0  0  0  0  0  0
  -11.8595   -7.3499   18.3482 H   0  0  0  0  0  0  0  0  0  0  0  0
  -10.8023   -8.6340   17.6980 H   0  0  0  0  0  0  0  0  0  0  0  0
  -10.9691   -8.5727   21.4199 H   0  0  0  0  0  0  0  0  0  0  0  0
   -9.1042   -7.8192   22.8352 H   0  0  0  0  0  0  0  0  0  0  0  0
   -7.2560   -6.0122   22.9726 H   0  0  0  0  0  0  0  0  0  0  0  0
   -6.2459   -5.2507   21.5177 H   0  0  0  0  0  0  0  0  0  0  0  0
   -3.5272   -7.8904   21.1008 H   0  0  0  0  0  0  0  0  0  0  0  0
   -2.8249   -8.0117   22.5016 H   0  0  0  0  0  0  0  0  0  0  0  0
   -4.1787   -8.8707   22.5398 H   0  0  0  0  0  0  0  0  0  0  0  0
   -3.0025   -4.9429   23.6841 H   0  0  0  0  0  0  0  0  0  0  0  0
   -3.9457   -6.1093   24.1770 H   0  0  0  0  0  0  0  0  0  0  0  0
   -1.1347   -7.3407   24.0594 H   0  0  0  0  0  0  0  0  0  0  0  0
   -2.0353   -7.0296   25.5031 H   0  0  0  0  0  0  0  0  0  0  0  0
    0.0856   -5.9932   25.6085 H   0  0  0  0  0  0  0  0  0  0  0  0
    1.4150   -2.3347   26.2582 H   0  0  0  0  0  0  0  0  0  0  0  0
    0.0655   -2.1407   27.3278 H   0  0  0  0  0  0  0  0  0  0  0  0
    2.7779   -3.5341   27.7929 H   0  0  0  0  0  0  0  0  0  0  0  0
    1.9566   -2.3774   28.8648 H   0  0  0  0  0  0  0  0  0  0  0  0
    1.6494   -5.2746   28.7272 H   0  0  0  0  0  0  0  0  0  0  0  0
    0.7492   -4.1855   29.8067 H   0  0  0  0  0  0  0  0  0  0  0  0
   -0.9634   -3.7706   28.1450 H   0  0  0  0  0  0  0  0  0  0  0  0
   -0.5208   -5.4122   27.8222 H   0  0  0  0  0  0  0  0  0  0  0  0
   -8.9656   -6.9467   18.0568 H   0  0  0  0  0  0  0  0  0  0  0  0
  1  2  1  0
  2  3  2  0
  3  4  1  0
  4  5  2  0
  5  6  1  0
  6  7  1  0
  7  8  1  0
  7  9  1  0
  9 10  1  0
 10 11  1  0
 11 12  1  0
 12 13  2  0
 12 14  1  0
 14 15  1  0
 15 16  1  0
 16 17  1  0
 17 18  1  0
  5 19  1  0
 19 20  2  0
 20  2  1  0
 18 14  1  0
  1 21  1  0
  1 22  1  0
  1 23  1  0
  3 24  1  0
  4 25  1  0
  6 26  1  0
  6 27  1  0
  8 28  1  0
  8 29  1  0
  8 30  1  0
  9 31  1  0
  9 32  1  0
 10 33  1  0
 10 34  1  0
 11 35  1  0
 15 36  1  0
 15 37  1  0
 16 38  1  0
 16 39  1  0
 17 40  1  0
 17 41  1  0
 18 42  1  0
 18 43  1  0
 20 44  1  0
M  END
>  <Energy>  (1090) 
392.95854862944793

>  <compound_id>  (1090) 
7865

>  <target_id>  (1090) 
1

>  <reference_id>  (1090) 
56

>  <inspiration_ids>  (1090) 
[56, 95]

>  <energy_score>  (1090) 
371.17516830635924

>  <distance_score>  (1090) 
12.824667013003014

>  <path>  (1090) 
/opt/xchem-fragalysis-2/maxwin/BulkDock/SCRATCH/511015/C7865-P56/C7865-P56.minimised.mol

>  <scratch_subdir>  (1090) 
/opt/xchem-fragalysis-2/maxwin/BulkDock/SCRATCH/511015/C7865-P56

>  <fragmenstein_runtime>  (1090) 
14.501881122589111

>  <fragmenstein_outcome>  (1090) 
too moved

>  <fragmenstein_mode>  (1090) 
expansion

>  <fragmenstein_error>  (1090) 


$$$$
C7865-P95
     RDKit          3D

 44 45  0  0  0  0  0  0  0  0999 V2000
   -5.2667   -0.8445   12.7623 C   0  0  0  0  0  0  0  0  0  0  0  0
   -5.8445   -2.2710   13.9278 C   0  0  0  0  0  0  0  0  0  0  0  0
   -6.2290   -1.2596   14.5813 C   0  0  0  0  0  0  0  0  0  0  0  0
   -5.7300   -2.0581   15.5375 C   0  0  0  0  0  0  0  0  0  0  0  0
   -4.9598   -3.4364   16.9075 C   0  0  0  0  0  0  0  0  0  0  0  0
   -3.9429   -2.8498   18.8246 C   0  0  0  0  0  0  0  0  0  0  0  0
   -3.5146   -2.4309   20.8919 N   0  0  0  0  0  0  0  0  0  0  0  0
   -4.5979   -4.0497   21.0995 C   0  0  0  0  0  0  0  0  0  0  0  0
   -2.8547   -2.3342   22.4652 C   0  0  0  0  0  0  0  0  0  0  0  0
   -3.1492   -2.8236   24.2412 C   0  0  0  0  0  0  0  0  0  0  0  0
   -2.9219   -2.0882   25.5623 N   0  0  0  0  0  0  0  0  0  0  0  0
   -3.8631   -1.6956   26.6229 C   0  0  0  0  0  0  0  0  0  0  0  0
   -5.0361   -1.7832   26.6746 O   0  0  0  0  0  0  0  0  0  0  0  0
   -2.9037   -1.2232   27.6258 N   0  0  0  0  0  0  0  0  0  0  0  0
   -3.1277   -0.6071   28.9741 C   0  0  0  0  0  0  0  0  0  0  0  0
   -1.8914   -0.6449   29.8506 C   0  0  0  0  0  0  0  0  0  0  0  0
   -1.3658   -1.9836   29.4763 C   0  0  0  0  0  0  0  0  0  0  0  0
   -2.4284   -2.3762   28.4749 C   0  0  0  0  0  0  0  0  0  0  0  0
   -4.7599   -4.3962   15.9277 N   0  0  0  0  0  0  0  0  0  0  0  0
   -5.3623   -3.9376   14.3830 C   0  0  0  0  0  0  0  0  0  0  0  0
   -4.8889    0.0021   13.3629 H   0  0  0  0  0  0  0  0  0  0  0  0
   -6.1185   -0.4061   12.2198 H   0  0  0  0  0  0  0  0  0  0  0  0
   -4.3869   -1.0176   12.1226 H   0  0  0  0  0  0  0  0  0  0  0  0
   -6.5581   -0.2500   14.5393 H   0  0  0  0  0  0  0  0  0  0  0  0
   -6.9186   -1.7853   15.9003 H   0  0  0  0  0  0  0  0  0  0  0  0
   -3.0006   -2.3379   18.5134 H   0  0  0  0  0  0  0  0  0  0  0  0
   -4.3025   -1.8142   18.8482 H   0  0  0  0  0  0  0  0  0  0  0  0
   -4.8561   -4.3854   20.0895 H   0  0  0  0  0  0  0  0  0  0  0  0
   -4.0091   -4.8450   21.5243 H   0  0  0  0  0  0  0  0  0  0  0  0
   -5.5506   -3.8311   21.5799 H   0  0  0  0  0  0  0  0  0  0  0  0
   -3.5174   -3.1750   22.4600 H   0  0  0  0  0  0  0  0  0  0  0  0
   -1.7766   -2.2582   22.4113 H   0  0  0  0  0  0  0  0  0  0  0  0
   -2.7133   -3.8063   24.3497 H   0  0  0  0  0  0  0  0  0  0  0  0
   -4.1622   -3.0670   24.2657 H   0  0  0  0  0  0  0  0  0  0  0  0
   -1.9859   -1.7898   25.8197 H   0  0  0  0  0  0  0  0  0  0  0  0
   -3.3922    0.4393   28.7721 H   0  0  0  0  0  0  0  0  0  0  0  0
   -4.0312   -1.0176   29.4563 H   0  0  0  0  0  0  0  0  0  0  0  0
   -1.1834    0.1454   29.5786 H   0  0  0  0  0  0  0  0  0  0  0  0
   -2.1341   -0.5472   30.9123 H   0  0  0  0  0  0  0  0  0  0  0  0
   -0.3797   -1.9034   29.0068 H   0  0  0  0  0  0  0  0  0  0  0  0
   -1.3035   -2.6841   30.3133 H   0  0  0  0  0  0  0  0  0  0  0  0
   -3.2915   -2.8878   28.9299 H   0  0  0  0  0  0  0  0  0  0  0  0
   -2.0056   -3.1339   27.8033 H   0  0  0  0  0  0  0  0  0  0  0  0
   -5.0859   -4.6464   13.6025 H   0  0  0  0  0  0  0  0  0  0  0  0
  1  2  1  0
  2  3  2  0
  3  4  1  0
  4  5  2  0
  5  6  1  0
  6  7  1  0
  7  8  1  0
  7  9  1  0
  9 10  1  0
 10 11  1  0
 11 12  1  0
 12 13  2  0
 12 14  1  0
 14 15  1  0
 15 16  1  0
 16 17  1  0
 17 18  1  0
  5 19  1  0
 19 20  2  0
 20  2  1  0
 18 14  1  0
  1 21  1  0
  1 22  1  0
  1 23  1  0
  3 24  1  0
  4 25  1  0
  6 26  1  0
  6 27  1  0
  8 28  1  0
  8 29  1  0
  8 30  1  0
  9 31  1  0
  9 32  1  0
 10 33  1  0
 10 34  1  0
 11 35  1  0
 15 36  1  0
 15 37  1  0
 16 38  1  0
 16 39  1  0
 17 40  1  0
 17 41  1  0
 18 42  1  0
 18 43  1  0
 20 44  1  0
M  END
>  <Energy>  (1091) 
1232.4295772740627

>  <compound_id>  (1091) 
7865

>  <target_id>  (1091) 
1

>  <reference_id>  (1091) 
95

>  <inspiration_ids>  (1091) 
[56, 95]

>  <energy_score>  (1091) 
1210.6461969509728

>  <distance_score>  (1091) 
10.906490478618844

>  <path>  (1091) 
/opt/xchem-fragalysis-2/maxwin/BulkDock/SCRATCH/511015/C7865-P95/C7865-P95.minimised.mol

>  <scratch_subdir>  (1091) 
/opt/xchem-fragalysis-2/maxwin/BulkDock/SCRATCH/511015/C7865-P95

>  <fragmenstein_runtime>  (1091) 
16.362963914871216

>  <fragmenstein_outcome>  (1091) 
too moved

>  <fragmenstein_mode>  (1091) 
expansion

>  <fragmenstein_error>  (1091) 


$$$$
C7866-P56
     RDKit          3D

 45 46  0  0  0  0  0  0  0  0999 V2000
   -5.8292   -6.3729   14.0378 C   0  0  0  0  0  0  0  0  0  0  0  0
   -7.1765   -6.2331   14.4852 O   0  0  0  0  0  0  0  0  0  0  0  0
   -7.5865   -6.9663   15.5694 C   0  0  0  0  0  0  0  0  0  0  0  0
   -8.9550   -7.0512   15.8201 C   0  0  0  0  0  0  0  0  0  0  0  0
   -9.4386   -7.5872   17.0392 C   0  0  0  0  0  0  0  0  0  0  0  0
   -8.5441   -8.0093   18.0351 C   0  0  0  0  0  0  0  0  0  0  0  0
   -9.0699   -8.1000   19.5486 C   0  0  0  0  0  0  0  0  0  0  0  0
   -8.3127   -8.8417   20.6545 N   0  0  0  0  0  0  0  0  0  0  0  0
   -8.4837  -10.2770   20.4622 C   0  0  0  0  0  0  0  0  0  0  0  0
   -8.6434   -8.3591   22.0372 C   0  0  0  0  0  0  0  0  0  0  0  0
   -8.2334   -9.2139   23.2618 C   0  0  0  0  0  0  0  0  0  0  0  0
   -6.8813   -9.0346   23.7365 N   0  0  0  0  0  0  0  0  0  0  0  0
   -6.3533   -8.2212   24.8269 C   0  0  0  0  0  0  0  0  0  0  0  0
   -6.8925   -7.4537   25.5344 O   0  0  0  0  0  0  0  0  0  0  0  0
   -4.9359   -8.5913   24.7362 N   0  0  0  0  0  0  0  0  0  0  0  0
   -3.7349   -8.0281   25.4354 C   0  0  0  0  0  0  0  0  0  0  0  0
   -3.8407   -8.0480   26.9474 C   0  0  0  0  0  0  0  0  0  0  0  0
   -4.4953   -9.3712   27.1162 C   0  0  0  0  0  0  0  0  0  0  0  0
   -4.6397   -9.7686   25.6515 C   0  0  0  0  0  0  0  0  0  0  0  0
   -7.2228   -8.0497   17.7302 N   0  0  0  0  0  0  0  0  0  0  0  0
   -6.7804   -7.5421   16.5289 C   0  0  0  0  0  0  0  0  0  0  0  0
   -5.7374   -5.9059   13.0549 H   0  0  0  0  0  0  0  0  0  0  0  0
   -5.1463   -5.8669   14.7262 H   0  0  0  0  0  0  0  0  0  0  0  0
   -5.5577   -7.4285   13.9325 H   0  0  0  0  0  0  0  0  0  0  0  0
   -9.6648   -6.6062   15.1291 H   0  0  0  0  0  0  0  0  0  0  0  0
  -10.5032   -7.5335   17.2502 H   0  0  0  0  0  0  0  0  0  0  0  0
   -9.1397   -7.0486   19.8572 H   0  0  0  0  0  0  0  0  0  0  0  0
  -10.0969   -8.4878   19.5154 H   0  0  0  0  0  0  0  0  0  0  0  0
   -9.5019  -10.6030   20.7007 H   0  0  0  0  0  0  0  0  0  0  0  0
   -7.7760  -10.8415   21.0772 H   0  0  0  0  0  0  0  0  0  0  0  0
   -8.2661  -10.5642   19.4273 H   0  0  0  0  0  0  0  0  0  0  0  0
   -9.7366   -8.2652   22.0828 H   0  0  0  0  0  0  0  0  0  0  0  0
   -8.2291   -7.3541   22.1569 H   0  0  0  0  0  0  0  0  0  0  0  0
   -8.8829   -8.9198   24.0954 H   0  0  0  0  0  0  0  0  0  0  0  0
   -8.3989  -10.2827   23.1051 H   0  0  0  0  0  0  0  0  0  0  0  0
   -6.1176   -9.5220   23.2869 H   0  0  0  0  0  0  0  0  0  0  0  0
   -3.6776   -6.9811   25.1142 H   0  0  0  0  0  0  0  0  0  0  0  0
   -2.8089   -8.4874   25.0521 H   0  0  0  0  0  0  0  0  0  0  0  0
   -4.4837   -7.2414   27.3145 H   0  0  0  0  0  0  0  0  0  0  0  0
   -2.8645   -7.9718   27.4335 H   0  0  0  0  0  0  0  0  0  0  0  0
   -3.8941  -10.0918   27.6776 H   0  0  0  0  0  0  0  0  0  0  0  0
   -5.4697   -9.2708   27.6057 H   0  0  0  0  0  0  0  0  0  0  0  0
   -3.7685  -10.3288   25.2725 H   0  0  0  0  0  0  0  0  0  0  0  0
   -5.4767  -10.4756   25.5694 H   0  0  0  0  0  0  0  0  0  0  0  0
   -5.6999   -7.5662   16.4279 H   0  0  0  0  0  0  0  0  0  0  0  0
  1  2  1  0
  2  3  1  0
  3  4  2  0
  4  5  1  0
  5  6  2  0
  6  7  1  0
  7  8  1  0
  8  9  1  0
  8 10  1  0
 10 11  1  0
 11 12  1  0
 12 13  1  0
 13 14  2  0
 13 15  1  0
 15 16  1  0
 16 17  1  0
 17 18  1  0
 18 19  1  0
  6 20  1  0
 20 21  2  0
 21  3  1  0
 19 15  1  0
  1 22  1  0
  1 23  1  0
  1 24  1  0
  4 25  1  0
  5 26  1  0
  7 27  1  0
  7 28  1  0
  9 29  1  0
  9 30  1  0
  9 31  1  0
 10 32  1  0
 10 33  1  0
 11 34  1  0
 11 35  1  0
 12 36  1  0
 16 37  1  0
 16 38  1  0
 17 39  1  0
 17 40  1  0
 18 41  1  0
 18 42  1  0
 19 43  1  0
 19 44  1  0
 21 45  1  0
M  END
>  <Energy>  (1092) 
86.37074112496866

>  <compound_id>  (1092) 
7866

>  <target_id>  (1092) 
1

>  <reference_id>  (1092) 
56

>  <inspiration_ids>  (1092) 
[56, 95]

>  <energy_score>  (1092) 
48.764668919399355

>  <distance_score>  (1092) 
13.16083899882063

>  <path>  (1092) 
/opt/xchem-fragalysis-2/maxwin/BulkDock/SCRATCH/511015/C7866-P56/C7866-P56.minimised.mol

>  <scratch_subdir>  (1092) 
/opt/xchem-fragalysis-2/maxwin/BulkDock/SCRATCH/511015/C7866-P56

>  <fragmenstein_runtime>  (1092) 
18.273080348968506

>  <fragmenstein_outcome>  (1092) 
too moved

>  <fragmenstein_mode>  (1092) 
expansion

>  <fragmenstein_error>  (1092) 


$$$$
C7866-P95
     RDKit          3D

 45 46  0  0  0  0  0  0  0  0999 V2000
   -9.7515   -5.9712   15.3395 C   0  0  0  0  0  0  0  0  0  0  0  0
   -9.1844   -7.2944   15.2357 O   0  0  0  0  0  0  0  0  0  0  0  0
   -8.1098   -7.4371   16.0570 C   0  0  0  0  0  0  0  0  0  0  0  0
   -6.8457   -6.9440   15.7857 C   0  0  0  0  0  0  0  0  0  0  0  0
   -5.9940   -6.6397   16.8748 C   0  0  0  0  0  0  0  0  0  0  0  0
   -6.4797   -6.7835   18.2275 C   0  0  0  0  0  0  0  0  0  0  0  0
   -5.8682   -5.5076   19.8255 C   0  0  0  0  0  0  0  0  0  0  0  0
   -4.9034   -5.7277   21.3235 N   0  0  0  0  0  0  0  0  0  0  0  0
   -4.7943   -4.3401   21.5193 C   0  0  0  0  0  0  0  0  0  0  0  0
   -4.4448   -6.9865   22.4541 C   0  0  0  0  0  0  0  0  0  0  0  0
   -3.7213   -8.3984   22.2291 C   0  0  0  0  0  0  0  0  0  0  0  0
   -3.4558   -8.9783   23.5657 N   0  0  0  0  0  0  0  0  0  0  0  0
   -2.8084   -8.3974   24.7562 C   0  0  0  0  0  0  0  0  0  0  0  0
   -2.2758   -7.3578   24.9037 O   0  0  0  0  0  0  0  0  0  0  0  0
   -3.1092   -9.4517   25.7280 N   0  0  0  0  0  0  0  0  0  0  0  0
   -2.9336   -9.4842   27.2211 C   0  0  0  0  0  0  0  0  0  0  0  0
   -1.5224   -9.1906   27.6777 C   0  0  0  0  0  0  0  0  0  0  0  0
   -0.7893   -9.9361   26.6213 C   0  0  0  0  0  0  0  0  0  0  0  0
   -1.9663  -10.4465   25.7952 C   0  0  0  0  0  0  0  0  0  0  0  0
   -7.5427   -7.7039   18.3543 N   0  0  0  0  0  0  0  0  0  0  0  0
   -8.3287   -7.9859   17.2919 C   0  0  0  0  0  0  0  0  0  0  0  0
   -9.2409   -5.2748   14.6720 H   0  0  0  0  0  0  0  0  0  0  0  0
  -10.8013   -6.0289   15.0376 H   0  0  0  0  0  0  0  0  0  0  0  0
   -9.7366   -5.6007   16.3688 H   0  0  0  0  0  0  0  0  0  0  0  0
   -6.5717   -6.6098   14.7900 H   0  0  0  0  0  0  0  0  0  0  0  0
   -5.1166   -6.0491   16.6587 H   0  0  0  0  0  0  0  0  0  0  0  0
   -6.3126   -4.5140   20.0783 H   0  0  0  0  0  0  0  0  0  0  0  0
   -5.1303   -4.8283   19.2335 H   0  0  0  0  0  0  0  0  0  0  0  0
   -5.7849   -3.8907   21.6769 H   0  0  0  0  0  0  0  0  0  0  0  0
   -4.0426   -3.8785   22.1347 H   0  0  0  0  0  0  0  0  0  0  0  0
   -4.5535   -4.0097   20.5496 H   0  0  0  0  0  0  0  0  0  0  0  0
   -5.3643   -7.2859   22.9838 H   0  0  0  0  0  0  0  0  0  0  0  0
   -3.7492   -6.6375   23.2080 H   0  0  0  0  0  0  0  0  0  0  0  0
   -2.7638   -8.3127   21.7137 H   0  0  0  0  0  0  0  0  0  0  0  0
   -4.3444   -9.1243   21.7027 H   0  0  0  0  0  0  0  0  0  0  0  0
   -3.8851   -9.8596   23.8178 H   0  0  0  0  0  0  0  0  0  0  0  0
   -3.3550  -10.4102   27.6456 H   0  0  0  0  0  0  0  0  0  0  0  0
   -3.5814   -8.6826   27.6005 H   0  0  0  0  0  0  0  0  0  0  0  0
   -1.2967   -8.1198   27.6364 H   0  0  0  0  0  0  0  0  0  0  0  0
   -1.3284   -9.5529   28.6909 H   0  0  0  0  0  0  0  0  0  0  0  0
   -0.1485   -9.2664   26.0380 H   0  0  0  0  0  0  0  0  0  0  0  0
   -0.1764  -10.7558   27.0068 H   0  0  0  0  0  0  0  0  0  0  0  0
   -2.3370  -11.4279   26.1355 H   0  0  0  0  0  0  0  0  0  0  0  0
   -1.6148  -10.6246   24.7695 H   0  0  0  0  0  0  0  0  0  0  0  0
   -9.2384   -8.5289   17.5242 H   0  0  0  0  0  0  0  0  0  0  0  0
  1  2  1  0
  2  3  1  0
  3  4  2  0
  4  5  1  0
  5  6  2  0
  6  7  1  0
  7  8  1  0
  8  9  1  0
  8 10  1  0
 10 11  1  0
 11 12  1  0
 12 13  1  0
 13 14  2  0
 13 15  1  0
 15 16  1  0
 16 17  1  0
 17 18  1  0
 18 19  1  0
  6 20  1  0
 20 21  2  0
 21  3  1  0
 19 15  1  0
  1 22  1  0
  1 23  1  0
  1 24  1  0
  4 25  1  0
  5 26  1  0
  7 27  1  0
  7 28  1  0
  9 29  1  0
  9 30  1  0
  9 31  1  0
 10 32  1  0
 10 33  1  0
 11 34  1  0
 11 35  1  0
 12 36  1  0
 16 37  1  0
 16 38  1  0
 17 39  1  0
 17 40  1  0
 18 41  1  0
 18 42  1  0
 19 43  1  0
 19 44  1  0
 21 45  1  0
M  END
